####################################################################### 
# 
# This file contains crystal structure data downloaded from the 
# Cambridge Structural Database (CSD) hosted by the Cambridge 
# Crystallographic Data Centre (CCDC).
# 
# Full information about CCDC data access policies and citation 
# guidelines are available at http://www.ccdc.cam.ac.uk/access/V1 
# 
# Audit and citation data items may have been added by the CCDC. 
# Please retain this information to preserve the provenance of 
# this file and to allow appropriate attribution of the data. 
# 
#######################################################################

data_Ag-CrMo6
_audit_block_doi                 10.5517/ccdc.csd.cc28kt0p
_database_code_depnum_ccdc_archive 'CCDC 2102482'
loop_
_citation_id
_citation_doi
_citation_year
1 10.1021/acs.cgd.1c01385 2022
loop_
_audit_author_name
_audit_author_address
'Ian Colliard'
;Oregon State University 
United States of America
;
_audit_update_record             
;
2021-08-10 deposited with the CCDC.	2025-09-09 downloaded from the CCDC.
;
_audit_creation_date             2021-07-10
_audit_creation_method           
;
Olex2 1.3
(compiled 2020.11.12 svn.r5f609507 for OlexSys, GUI svn.r6272)
;
_shelx_SHELXL_version_number     2018/3
_audit_contact_author_address    ?
_audit_contact_author_email      ?
_audit_contact_author_phone      ?
_publ_contact_author_id_orcid    ?
_publ_section_references         
;
Dolomanov, O.V., Bourhis, L.J., Gildea, R.J, Howard, J.A.K. & Puschmann, H.
 (2009), J. Appl. Cryst. 42, 339-341.

Sheldrick, G.M. (2015). Acta Cryst. A71, 3-8.

Sheldrick, G.M. (2015). Acta Cryst. C71, 3-8.
;
_chemical_name_common            ?
_chemical_name_systematic        ?
_chemical_formula_moiety         
'2(C10 H14 Ag N6 O2), Cr H6 Mo6 O24, 4(C5 H7 N3 O), 8(H2 O)'
_chemical_formula_sum            'C40 H78 Ag2 Cr Mo6 N24 O40'
_chemical_formula_weight         2378.64
_chemical_melting_point          ?
_chemical_oxdiff_formula         'Ag N O C Mo'
loop_
_atom_type_symbol
_atom_type_description
_atom_type_scat_dispersion_real
_atom_type_scat_dispersion_imag
_atom_type_scat_source
C C 0.0181 0.0091 'International Tables Vol C Tables 4.2.6.8 and 6.1.1.4'
H H 0.0000 0.0000 'International Tables Vol C Tables 4.2.6.8 and 6.1.1.4'
Ag Ag 0.1306 4.2820 'International Tables Vol C Tables 4.2.6.8 and 6.1.1.4'
Cr Cr -0.1635 2.4439 'International Tables Vol C Tables 4.2.6.8 and 6.1.1.4'
Mo Mo -0.0483 2.7339 'International Tables Vol C Tables 4.2.6.8 and 6.1.1.4'
N N 0.0311 0.0180 'International Tables Vol C Tables 4.2.6.8 and 6.1.1.4'
O O 0.0492 0.0322 'International Tables Vol C Tables 4.2.6.8 and 6.1.1.4'

_shelx_space_group_comment       
;
The symmetry employed for this shelxl refinement is uniquely defined
by the following loop, which should always be used as a source of
symmetry information in preference to the above space-group names.
They are only intended as comments.
;
_space_group_crystal_system      monoclinic
_space_group_IT_number           14
_space_group_name_H-M_alt        'P 1 21/c 1'
_space_group_name_Hall           '-P 2ybc'
loop_
_space_group_symop_operation_xyz
'x, y, z'
'-x, y+1/2, -z+1/2'
'-x, -y, -z'
'x, -y-1/2, z-1/2'

# start Validation Reply Form
_vrf_PLAT430_Ag-CrMo6            
;
PROBLEM: Short Inter D...A Contact  N2
RESPONSE: ...
;
_vrf_PLAT420_Ag-CrMo6            
;
PROBLEM: D-H Bond Without Acceptor  O17 --H17D. Please Check.
RESPONSE: Acceptor in a solvent void
;
_vrf_PLAT934_Ag-CrMo6            
;
PROBLEM: Number of (Iobs-Icalc)/Sigma(W) > 10 Outliers ..7
RESPONSE: ...
;
# end Validation Reply Form

_cell_length_a                   11.18580(10)
_cell_length_b                   17.13200(10)
_cell_length_c                   19.83320(10)
_cell_angle_alpha                90
_cell_angle_beta                 104.6110(10)
_cell_angle_gamma                90
_cell_volume                     3677.82(5)
_cell_formula_units_Z            2
_cell_measurement_reflns_used    18886
_cell_measurement_temperature    99.9(9)
_cell_measurement_theta_max      76.0400
_cell_measurement_theta_min      3.4740
_shelx_estimated_absorpt_T_max   ?
_shelx_estimated_absorpt_T_min   ?
_exptl_absorpt_coefficient_mu    14.425
_exptl_absorpt_correction_T_max  1.00000
_exptl_absorpt_correction_T_min  0.57672
_exptl_absorpt_correction_type   multi-scan
_exptl_absorpt_process_details   
;
CrysAlisPro 1.171.40.81a (Rigaku Oxford Diffraction, 2020)
Empirical absorption correction using spherical harmonics,
implemented in SCALE3 ABSPACK scaling algorithm.
;
_exptl_absorpt_special_details   ?
_exptl_crystal_colour            'clear light pink'
_exptl_crystal_colour_lustre     clear
_exptl_crystal_colour_modifier   light
_exptl_crystal_colour_primary    pink
_exptl_crystal_density_diffrn    2.148
_exptl_crystal_density_meas      ?
_exptl_crystal_density_method    ?
_exptl_crystal_description       prism
_exptl_crystal_F_000             2352
_exptl_crystal_size_max          ?
_exptl_crystal_size_mid          0.02
_exptl_crystal_size_min          0.01
_exptl_transmission_factor_max   ?
_exptl_transmission_factor_min   ?
_diffrn_reflns_av_R_equivalents  0.0493
_diffrn_reflns_av_unetI/netI     0.0392
_diffrn_reflns_Laue_measured_fraction_full 0.999
_diffrn_reflns_Laue_measured_fraction_max 0.965
_diffrn_reflns_limit_h_max       14
_diffrn_reflns_limit_h_min       -9
_diffrn_reflns_limit_k_max       21
_diffrn_reflns_limit_k_min       -20
_diffrn_reflns_limit_l_max       24
_diffrn_reflns_limit_l_min       -24
_diffrn_reflns_number            26454
_diffrn_reflns_point_group_measured_fraction_full 0.999
_diffrn_reflns_point_group_measured_fraction_max 0.965
_diffrn_reflns_theta_full        67.684
_diffrn_reflns_theta_max         76.065
_diffrn_reflns_theta_min         3.458
_diffrn_ambient_environment      N~2~
_diffrn_ambient_temperature      99.9(9)
_diffrn_detector                 'Hybrid Pixel Array Detector'
_diffrn_detector_area_resol_mean 10.0000
_diffrn_detector_type            HyPix
_diffrn_measured_fraction_theta_full 0.999
_diffrn_measured_fraction_theta_max 0.965
_diffrn_measurement_details      
;
List of Runs (angles in degrees, time in seconds):

  # Type    Start    End  Width  t~exp~   \w     \q     \k     \f   Frames
#--------------------------------------------------------------------------
  1  \w     85.00 117.00   0.25    0.05    --   48.37  77.00-120.00  128
  2  \w     96.00 178.00   0.25    0.19    --  104.24  19.00-180.00  328
  3  \w     92.00 171.00   0.25    0.19    --  104.24  37.00  90.00  316
  4  \w     90.00 121.00   0.25    0.05    --   48.37  77.00 120.00  124
  5  \w     87.00 120.00   0.25    0.05    --   48.37  77.00 150.00  132
  6  \w    -73.00 -23.00   0.25    0.05    --  -48.37 129.00 158.00  200
  7  \w    -42.00 -14.00   0.25    0.19    --  -86.25  37.00  30.00  112
  8  \w    -42.00 -13.00   0.25    0.19    --  -86.25  37.00-150.00  116
  9  \w     79.00 104.00   0.25    0.05    --   48.37-139.00 -88.00  100
 10  \w     79.00 122.00   0.25    0.19    --  104.24-139.00 -88.00  172
 11  \w     49.00  76.00   0.25    0.05    --   48.37-129.00  85.00  108
 12  \w     37.00  82.00   0.25    0.19    --  104.24-129.00  85.00  180
 13  \w     85.00 112.00   0.25    0.19    --  104.24-129.00  85.00  108
 14  \w     39.00 103.00   0.25    0.19    --  104.24 -99.00 120.00  256
 15  \w     32.00  58.00   0.25    0.19    --  104.24 -57.00  90.00  104
 16  \w     32.00  57.00   0.25    0.19    --  104.24 -57.00 120.00  100
 17  \w     48.00 103.00   0.25    0.19    --  104.24 -77.00-120.00  220
 18  \w     33.00  66.00   0.25    0.19    --  104.24 -57.00-150.00  132
 19  \w     99.00 125.00   0.25    0.19    --  104.24 125.00 120.00  104
 20  \w    111.00 136.00   0.25    0.19    --  104.24 129.00 158.00  100
 21  \w    135.00 174.00   0.25    0.19    --  104.24 125.00 120.00  156
 22  \w    106.00 131.00   0.25    0.19    --  104.24 139.00 -27.00  100
 23  \w   -116.00 -64.00   0.25    0.05    --  -48.37-139.00 -88.00  208
 24  \w   -115.00 -89.00   0.25    0.05    --  -48.37 -77.00-120.00  104
 25  \w   -115.00 -90.00   0.25    0.05    --  -48.37 -77.00-150.00  100
 26  \w   -115.00 -90.00   0.25    0.19    --  -86.25-139.00 -88.00  100
 27  \w    -97.00 -71.00   0.25    0.05    --  -48.37-129.00  85.00  104
;
_diffrn_measurement_device       'four-circle diffractometer'
_diffrn_measurement_device_type  'XtaLAB Synergy, Dualflex, HyPix'
_diffrn_measurement_method       '\w scans'
_diffrn_orient_matrix_type       
'CrysAlisPro convention (1999,Acta A55,543-557)'
_diffrn_orient_matrix_UB_11      -0.0380512000
_diffrn_orient_matrix_UB_12      0.0470897000
_diffrn_orient_matrix_UB_13      0.0574343000
_diffrn_orient_matrix_UB_21      -0.0168973000
_diffrn_orient_matrix_UB_22      -0.0765223000
_diffrn_orient_matrix_UB_23      0.0373158000
_diffrn_orient_matrix_UB_31      0.1360994000
_diffrn_orient_matrix_UB_32      0.0036776000
_diffrn_orient_matrix_UB_33      0.0418570000
_diffrn_radiation_monochromator  mirror
_diffrn_radiation_probe          x-ray
_diffrn_radiation_type           'Cu K\a'
_diffrn_radiation_wavelength     1.54184
_diffrn_source                   'micro-focus sealed X-ray tube'
_diffrn_source_type              'PhotonJet (Cu) X-ray Source'
_reflns_Friedel_coverage         0.000
_reflns_Friedel_fraction_full    .
_reflns_Friedel_fraction_max     .
_reflns_number_gt                7114
_reflns_number_total             7415
_reflns_odcompleteness_completeness 99.99
_reflns_odcompleteness_iscentric 1
_reflns_odcompleteness_theta     66.49
_reflns_special_details          
;
 Reflections were merged by SHELXL according to the crystal
 class for the calculation of statistics and refinement.
 
 _reflns_Friedel_fraction is defined as the number of unique
 Friedel pairs measured divided by the number that would be
 possible theoretically, ignoring centric projections and
 systematic absences.
;
_reflns_threshold_expression     'I > 2\s(I)'
_computing_cell_refinement       'CrysAlisPro 1.171.40.81a (Rigaku OD, 2020)'
_computing_data_collection       'CrysAlisPro 1.171.40.81a (Rigaku OD, 2020)'
_computing_data_reduction        'CrysAlisPro 1.171.40.81a (Rigaku OD, 2020)'
_computing_molecular_graphics    'Olex2 1.3 (Dolomanov et al., 2009)'
_computing_publication_material  'Olex2 1.3 (Dolomanov et al., 2009)'
_computing_structure_refinement  'SHELXL 2018/3 (Sheldrick, 2015)'
_computing_structure_solution    'SHELXT 2018/2 (Sheldrick, 2018)'
_refine_diff_density_max         1.017
_refine_diff_density_min         -1.510
_refine_diff_density_rms         0.194
_refine_ls_extinction_coef       .
_refine_ls_extinction_method     none
_refine_ls_goodness_of_fit_ref   1.108
_refine_ls_hydrogen_treatment    mixed
_refine_ls_matrix_type           full
_refine_ls_number_parameters     531
_refine_ls_number_reflns         7415
_refine_ls_number_restraints     0
_refine_ls_R_factor_all          0.0403
_refine_ls_R_factor_gt           0.0363
_refine_ls_restrained_S_all      1.108
_refine_ls_shift/su_max          0.001
_refine_ls_shift/su_mean         0.000
_refine_ls_structure_factor_coef Fsqd
_refine_ls_weighting_details     
'w=1/[\s^2^(Fo^2^)+(0.0643P)^2^+9.3873P] where P=(Fo^2^+2Fc^2^)/3'
_refine_ls_weighting_scheme      calc
_refine_ls_wR_factor_gt          0.0982
_refine_ls_wR_factor_ref         0.1087
_refine_special_details          SQUEEZE
_olex2_refinement_description    
;
1. Fixed Uiso
 At 1.2 times of:
  All C(H) groups, All N(H,H) groups
 At 1.5 times of:
  All C(H,H,H) groups, All O(H) groups, All O(H,H) groups
2.a Free rotating group:
 O18(H18A,H18B), O19(H19A,H19B), O17(H17D,H17E), O20(H20A,H20B)
2.b Ternary CH refined with riding coordinates:
 O2(H2A), O7(H7)
2.c Aromatic/amide H refined with riding coordinates:
 C18(H18), C19(H19), C15(H15), C3(H3), C9(H9), C2(H2), C14(H14), C8(H8)
2.d X=CH2 refined with riding coordinates:
 N9(H9A,H9B), N1(H1D,H1E), N4(H4A,H4B), N12(H12A,H12B)
2.e Idealised Me refined as rotating group:
 C11(H11A,H11B,H11C), C17(H17A,H17B,H17C), C1(H1A,H1B,H1C), C7(H7A,H7B,H7C)
;
_atom_sites_solution_hydrogens   mixed
_atom_sites_solution_primary     dual
_atom_sites_solution_secondary   ?
loop_
_atom_site_label
_atom_site_type_symbol
_atom_site_fract_x
_atom_site_fract_y
_atom_site_fract_z
_atom_site_U_iso_or_equiv
_atom_site_adp_type
_atom_site_occupancy
_atom_site_site_symmetry_order
_atom_site_calc_flag
_atom_site_refinement_flags_posn
_atom_site_refinement_flags_adp
_atom_site_refinement_flags_occupancy
_atom_site_disorder_assembly
_atom_site_disorder_group
Ag1 Ag 0.50125(3) 0.49863(2) 0.19669(2) 0.01627(10) Uani 1 1 d . . . . .
Mo3 Mo 0.96918(3) 0.31184(2) 0.45946(2) 0.00822(9) Uani 1 1 d . . . . .
Mo1 Mo 0.87749(3) 0.63443(2) 0.38037(2) 0.00843(9) Uani 1 1 d . . . . .
Mo2 Mo 0.83951(3) 0.44560(2) 0.34078(2) 0.00846(9) Uani 1 1 d . . . . .
O1 O 1.1205(2) 0.31909(15) 0.53015(14) 0.0099(5) Uani 1 1 d . . . . .
O6 O 0.8231(2) 0.36162(15) 0.40299(14) 0.0101(5) Uani 1 1 d . . . . .
O2 O 0.9455(2) 0.40343(15) 0.53807(13) 0.0073(5) Uani 1 1 d . . . . .
H2A H 0.867542 0.404552 0.552076 0.011 Uiso 1 1 calc R U . . .
O4 O 1.0242(2) 0.43073(15) 0.42472(13) 0.0079(5) Uani 1 1 d . . . . .
O7 O 0.8376(2) 0.52395(16) 0.43670(13) 0.0095(5) Uani 1 1 d . . . . .
H7 H 0.764423 0.523071 0.455347 0.014 Uiso 1 1 calc R U . . .
O11 O 0.9093(2) 0.54585(16) 0.32882(13) 0.0092(5) Uani 1 1 d . . . . .
O16 O 0.2805(3) 0.46178(17) 0.45432(15) 0.0141(6) Uani 1 1 d . . . . .
O10 O 0.7249(3) 0.65034(17) 0.34294(14) 0.0141(6) Uani 1 1 d . . . . .
O5 O 1.0275(3) 0.26611(17) 0.39749(14) 0.0142(6) Uani 1 1 d . . . . .
O13 O 0.6658(3) 0.38213(17) 0.13914(15) 0.0150(6) Uani 1 1 d . . . . .
O12 O 0.9572(3) 0.70290(17) 0.34501(15) 0.0146(6) Uani 1 1 d . . . . .
O18 O 0.8537(3) 0.77274(19) 0.21467(16) 0.0187(6) Uani 1 1 d G . . . .
H18A H 0.902527 0.756118 0.251946 0.028 Uiso 1 1 d G U . . .
H18B H 0.899311 0.778993 0.186704 0.028 Uiso 1 1 d G U . . .
O3 O 0.8920(3) 0.24048(16) 0.49270(14) 0.0133(5) Uani 1 1 d . . . . .
O8 O 0.6849(3) 0.46072(18) 0.30673(14) 0.0152(6) Uani 1 1 d . . . . .
O15 O 0.3051(3) 0.49462(18) 0.04596(18) 0.0207(7) Uani 1 1 d . . . . .
O9 O 0.8896(3) 0.39504(17) 0.27919(15) 0.0162(6) Uani 1 1 d . . . . .
O14 O 0.3839(3) 0.6462(2) 0.20773(18) 0.0252(7) Uani 1 1 d . . . . .
O19 O 0.3940(3) 0.7760(2) 0.1322(2) 0.0310(8) Uani 1 1 d G . . . .
H19A H 0.372962 0.737461 0.153594 0.047 Uiso 1 1 d G U . . .
H19B H 0.327451 0.801545 0.116908 0.047 Uiso 1 1 d G U . . .
N8 N 0.2829(3) 0.5929(2) 0.43592(17) 0.0117(6) Uani 1 1 d . . . . .
O17 O 0.4989(4) 0.3302(2) 0.2137(2) 0.0354(9) Uani 1 1 d G . . . .
H17D H 0.485542 0.298753 0.179481 0.053 Uiso 1 1 d G U . . .
H17E H 0.527305 0.301625 0.249201 0.053 Uiso 1 1 d G U . . .
N9 N 0.2899(3) 0.7249(2) 0.42015(19) 0.0161(7) Uani 1 1 d . . . . .
H9A H 0.225493 0.728990 0.436156 0.019 Uiso 1 1 calc R U . . .
H9B H 0.322641 0.765969 0.407441 0.019 Uiso 1 1 calc R U . . .
O20 O 0.1157(3) 0.5867(2) 0.07810(19) 0.0249(7) Uani 1 1 d G . . . .
H20A H 0.183112 0.564848 0.076394 0.037 Uiso 1 1 d G U . . .
H20B H 0.112272 0.627556 0.053410 0.037 Uiso 1 1 d G U . . .
N3 N 0.2811(3) 0.3634(2) 0.03424(19) 0.0137(7) Uani 1 1 d . . . . .
N2 N 0.4457(3) 0.4274(2) 0.00356(18) 0.0132(7) Uani 1 1 d . . . . .
N11 N 0.6629(3) 0.5134(2) 0.15862(17) 0.0120(7) Uani 1 1 d . . . . .
N7 N 0.4334(3) 0.5091(2) 0.40957(18) 0.0123(7) Uani 1 1 d . . . . .
N10 N 0.8300(3) 0.4530(2) 0.12654(18) 0.0136(7) Uani 1 1 d . . . . .
N5 N 0.3325(3) 0.5216(2) 0.22531(18) 0.0167(7) Uani 1 1 d . . . . .
N1 N 0.5824(3) 0.3594(2) -0.04291(19) 0.0160(7) Uani 1 1 d . . . . .
H1D H 0.619862 0.402539 -0.046192 0.019 Uiso 1 1 calc R U . . .
H1E H 0.608773 0.316455 -0.056416 0.019 Uiso 1 1 calc R U . . .
N4 N 0.2786(4) 0.3951(3) 0.2413(2) 0.0239(8) Uani 1 1 d . . . . .
H4A H 0.343085 0.379769 0.228907 0.029 Uiso 1 1 calc R U . . .
H4B H 0.229893 0.361399 0.252461 0.029 Uiso 1 1 calc R U . . .
N12 N 0.6662(4) 0.6451(2) 0.1816(2) 0.0188(7) Uani 1 1 d . . . . .
H12A H 0.597373 0.640406 0.193040 0.023 Uiso 1 1 calc R U . . .
H12B H 0.701175 0.690021 0.183422 0.023 Uiso 1 1 calc R U . . .
N6 N 0.2098(3) 0.6269(2) 0.24570(19) 0.0196(8) Uani 1 1 d . . . . .
C12 C 0.3286(4) 0.5199(2) 0.4340(2) 0.0129(8) Uani 1 1 d . . . . .
C13 C 0.3393(4) 0.6544(2) 0.4150(2) 0.0130(8) Uani 1 1 d . . . . .
C18 C 0.3190(4) 0.2935(3) 0.0130(2) 0.0171(8) Uani 1 1 d . . . . .
H18 H 0.274766 0.248385 0.016520 0.021 Uiso 1 1 calc R U . . .
C16 C 0.3430(4) 0.4311(3) 0.0282(2) 0.0152(8) Uani 1 1 d . . . . .
C19 C 0.4191(4) 0.2892(2) -0.0127(2) 0.0164(8) Uani 1 1 d . . . . .
H19 H 0.444255 0.241661 -0.027107 0.020 Uiso 1 1 calc R U . . .
C15 C 0.4893(3) 0.5714(3) 0.3865(2) 0.0141(8) Uani 1 1 d . . . . .
H15 H 0.558329 0.563337 0.369304 0.017 Uiso 1 1 calc R U . . .
C20 C 0.4859(4) 0.3591(2) -0.0175(2) 0.0128(8) Uani 1 1 d . . . . .
C4 C 0.7151(4) 0.4470(2) 0.1417(2) 0.0137(8) Uani 1 1 d . . . . .
C3 C 0.8311(4) 0.5907(3) 0.1403(2) 0.0141(8) Uani 1 1 d . . . . .
H3 H 0.867139 0.639260 0.137985 0.017 Uiso 1 1 calc R U . . .
C10 C 0.2542(4) 0.4704(3) 0.2432(2) 0.0182(9) Uani 1 1 d . . . . .
C9 C 0.1486(4) 0.4978(3) 0.2632(2) 0.0234(10) Uani 1 1 d . . . . .
H9 H 0.093836 0.463263 0.275762 0.028 Uiso 1 1 calc R U . . .
C5 C 0.7186(4) 0.5830(2) 0.1612(2) 0.0125(8) Uani 1 1 d . . . . .
C2 C 0.8831(4) 0.5243(3) 0.1242(2) 0.0161(8) Uani 1 1 d . . . . .
H2 H 0.957170 0.527328 0.111057 0.019 Uiso 1 1 calc R U . . .
C6 C 0.3128(4) 0.5999(3) 0.2248(2) 0.0197(9) Uani 1 1 d . . . . .
C11 C 0.4803(4) 0.4297(3) 0.4065(2) 0.0175(8) Uani 1 1 d . . . . .
H11A H 0.495188 0.405948 0.451701 0.026 Uiso 1 1 calc R U . . .
H11B H 0.556057 0.431523 0.392124 0.026 Uiso 1 1 calc R U . . .
H11C H 0.420426 0.399440 0.373600 0.026 Uiso 1 1 calc R U . . .
C17 C 0.1679(4) 0.3699(3) 0.0588(2) 0.0188(9) Uani 1 1 d . . . . .
H17A H 0.104952 0.395571 0.023952 0.028 Uiso 1 1 calc R U . . .
H17B H 0.184907 0.399683 0.101138 0.028 Uiso 1 1 calc R U . . .
H17C H 0.140105 0.318689 0.067284 0.028 Uiso 1 1 calc R U . . .
C14 C 0.4447(4) 0.6447(2) 0.3886(2) 0.0146(8) Uani 1 1 d . . . . .
H14 H 0.482105 0.687246 0.373191 0.017 Uiso 1 1 calc R U . . .
C8 C 0.1299(4) 0.5763(3) 0.2636(2) 0.0233(10) Uani 1 1 d . . . . .
H8 H 0.060940 0.595567 0.276286 0.028 Uiso 1 1 calc R U . . .
C1 C 0.8940(4) 0.3817(3) 0.1151(3) 0.0252(10) Uani 1 1 d . . . . .
H1A H 0.887307 0.343373 0.149329 0.038 Uiso 1 1 calc R U . . .
H1B H 0.979553 0.393029 0.119170 0.038 Uiso 1 1 calc R U . . .
H1C H 0.857081 0.361712 0.069367 0.038 Uiso 1 1 calc R U . . .
C7 C 0.1868(4) 0.7112(3) 0.2435(2) 0.0237(10) Uani 1 1 d . . . . .
H7A H 0.262079 0.738151 0.264738 0.036 Uiso 1 1 calc R U . . .
H7B H 0.125710 0.722867 0.268458 0.036 Uiso 1 1 calc R U . . .
H7C H 0.157431 0.727679 0.195960 0.036 Uiso 1 1 calc R U . . .
Cr1 Cr 1.000000 0.500000 0.500000 0.00610(18) Uani 1 2 d S . P . .
H4 H 1.102(5) 0.438(3) 0.417(2) 0.008(11) Uiso 1 1 d . . . . .

loop_
_atom_site_aniso_label
_atom_site_aniso_U_11
_atom_site_aniso_U_22
_atom_site_aniso_U_33
_atom_site_aniso_U_23
_atom_site_aniso_U_13
_atom_site_aniso_U_12
Ag1 0.00898(16) 0.02095(18) 0.01993(17) 0.00258(11) 0.00563(12) 0.00216(10)
Mo3 0.00753(16) 0.00745(16) 0.00984(16) -0.00020(10) 0.00249(12) 0.00000(10)
Mo1 0.00649(16) 0.00951(16) 0.00885(16) 0.00208(10) 0.00114(12) 0.00143(10)
Mo2 0.00655(15) 0.01089(17) 0.00736(15) -0.00018(10) 0.00066(11) -0.00151(10)
O1 0.0056(12) 0.0096(13) 0.0128(13) 0.0012(10) -0.0008(10) 0.0043(10)
O6 0.0076(12) 0.0101(13) 0.0106(12) -0.0017(10) -0.0012(10) -0.0019(10)
O2 0.0029(11) 0.0104(13) 0.0089(12) 0.0016(10) 0.0020(9) 0.0022(9)
O4 0.0058(12) 0.0082(12) 0.0100(12) 0.0020(10) 0.0022(10) -0.0017(10)
O7 0.0079(12) 0.0107(13) 0.0099(12) 0.0016(10) 0.0027(10) 0.0018(10)
O11 0.0078(12) 0.0120(13) 0.0075(12) -0.0001(10) 0.0017(10) -0.0024(10)
O16 0.0097(13) 0.0132(14) 0.0208(14) 0.0027(11) 0.0065(11) 0.0001(11)
O10 0.0081(13) 0.0199(15) 0.0131(13) 0.0038(11) 0.0007(11) 0.0035(11)
O5 0.0136(13) 0.0145(14) 0.0140(13) -0.0033(11) 0.0024(11) 0.0000(11)
O13 0.0110(13) 0.0159(14) 0.0189(14) -0.0015(11) 0.0054(11) -0.0029(11)
O12 0.0167(14) 0.0123(13) 0.0153(13) 0.0033(11) 0.0050(11) 0.0033(11)
O18 0.0167(14) 0.0225(16) 0.0182(14) 0.0043(12) 0.0065(12) 0.0026(12)
O3 0.0130(13) 0.0121(14) 0.0128(13) 0.0003(10) -0.0004(11) 0.0006(11)
O8 0.0127(14) 0.0196(15) 0.0125(13) 0.0009(11) 0.0020(11) -0.0050(11)
O15 0.0200(16) 0.0156(15) 0.0301(17) -0.0046(12) 0.0127(14) -0.0015(12)
O9 0.0202(15) 0.0140(14) 0.0153(14) -0.0040(11) 0.0060(12) -0.0048(12)
O14 0.0177(15) 0.0288(18) 0.0342(18) 0.0148(14) 0.0161(14) 0.0078(13)
O19 0.0128(15) 0.0178(17) 0.063(3) 0.0160(16) 0.0100(16) 0.0075(12)
N8 0.0064(14) 0.0143(16) 0.0152(16) -0.0010(13) 0.0045(12) -0.0021(12)
O17 0.0288(19) 0.034(2) 0.047(2) 0.0158(17) 0.0147(18) 0.0037(16)
N9 0.0086(15) 0.0149(17) 0.0267(18) 0.0008(14) 0.0083(14) -0.0004(13)
O20 0.0175(16) 0.0228(17) 0.0385(19) 0.0125(14) 0.0145(14) 0.0061(13)
N3 0.0073(15) 0.0135(17) 0.0218(17) 0.0014(13) 0.0067(14) -0.0014(12)
N2 0.0099(16) 0.0136(16) 0.0159(16) -0.0014(13) 0.0027(13) -0.0035(13)
N11 0.0090(15) 0.0165(17) 0.0101(15) 0.0017(12) 0.0016(13) -0.0002(13)
N7 0.0077(15) 0.0147(17) 0.0168(16) 0.0007(13) 0.0072(13) 0.0015(12)
N10 0.0093(15) 0.0156(17) 0.0188(17) -0.0021(13) 0.0088(13) -0.0012(13)
N5 0.0060(15) 0.029(2) 0.0136(16) 0.0069(15) 0.0002(13) 0.0042(14)
N1 0.0135(17) 0.0127(17) 0.0233(18) 0.0013(14) 0.0072(14) -0.0020(13)
N4 0.0197(19) 0.032(2) 0.0216(19) 0.0038(16) 0.0074(16) -0.0057(17)
N12 0.0188(18) 0.0165(18) 0.0221(18) -0.0025(14) 0.0068(15) -0.0034(14)
N6 0.0106(17) 0.034(2) 0.0138(17) 0.0038(15) 0.0030(14) 0.0046(15)
C12 0.0087(18) 0.017(2) 0.0122(18) -0.0010(15) 0.0013(15) -0.0020(15)
C13 0.0074(17) 0.018(2) 0.0127(18) -0.0018(15) 0.0011(14) -0.0027(15)
C18 0.017(2) 0.014(2) 0.021(2) -0.0002(16) 0.0068(17) -0.0031(16)
C16 0.0134(19) 0.017(2) 0.0167(19) 0.0003(16) 0.0070(16) 0.0014(16)
C19 0.016(2) 0.0120(19) 0.023(2) -0.0002(16) 0.0095(17) -0.0014(16)
C15 0.0025(16) 0.024(2) 0.0135(18) -0.0003(16) -0.0017(14) -0.0027(15)
C20 0.0099(18) 0.014(2) 0.0127(18) 0.0038(15) -0.0007(15) 0.0009(15)
C4 0.0132(19) 0.019(2) 0.0071(17) 0.0025(14) -0.0001(15) 0.0034(16)
C3 0.0104(18) 0.019(2) 0.0110(17) 0.0018(15) -0.0012(15) -0.0050(15)
C10 0.0093(18) 0.035(3) 0.0092(18) 0.0029(17) -0.0002(15) -0.0026(17)
C9 0.012(2) 0.041(3) 0.017(2) 0.0003(18) 0.0025(17) -0.0066(18)
C5 0.0076(17) 0.020(2) 0.0069(16) 0.0016(14) -0.0040(14) 0.0000(15)
C2 0.0127(19) 0.022(2) 0.0144(18) 0.0001(16) 0.0044(15) -0.0029(17)
C6 0.0130(19) 0.030(2) 0.018(2) 0.0094(18) 0.0068(16) 0.0072(18)
C11 0.015(2) 0.018(2) 0.022(2) -0.0012(16) 0.0099(17) 0.0033(16)
C17 0.015(2) 0.024(2) 0.019(2) -0.0043(17) 0.0057(17) -0.0055(17)
C14 0.0107(18) 0.017(2) 0.0181(19) 0.0009(15) 0.0079(16) -0.0030(15)
C8 0.012(2) 0.044(3) 0.013(2) -0.0016(19) 0.0013(16) 0.0001(19)
C1 0.020(2) 0.022(2) 0.040(3) -0.011(2) 0.020(2) -0.0051(18)
C7 0.0113(19) 0.039(3) 0.020(2) 0.0058(19) 0.0022(17) 0.0134(19)
Cr1 0.0041(4) 0.0065(4) 0.0077(4) -0.0002(3) 0.0014(3) -0.0004(3)

_geom_special_details            
;
 All esds (except the esd in the dihedral angle between two l.s. planes)
 are estimated using the full covariance matrix.  The cell esds are taken
 into account individually in the estimation of esds in distances, angles
 and torsion angles; correlations between esds in cell parameters are only
 used when they are defined by crystal symmetry.  An approximate (isotropic)
 treatment of cell esds is used for estimating esds involving l.s. planes.
;
loop_
_geom_bond_atom_site_label_1
_geom_bond_atom_site_label_2
_geom_bond_distance
_geom_bond_site_symmetry_2
_geom_bond_publ_flag
Ag1 N11 2.143(3) . ?
Ag1 N5 2.141(3) . ?
Mo3 O1 1.910(3) . ?
Mo3 O6 1.931(3) . ?
Mo3 O2 2.274(3) . ?
Mo3 O4 2.284(3) . ?
Mo3 O5 1.719(3) . ?
Mo3 O3 1.721(3) . ?
Mo1 O1 1.940(3) 3_766 ?
Mo1 O2 2.311(2) 3_766 ?
Mo1 O7 2.298(3) . ?
Mo1 O11 1.913(3) . ?
Mo1 O10 1.703(3) . ?
Mo1 O12 1.726(3) . ?
Mo2 O6 1.934(3) . ?
Mo2 O4 2.317(3) . ?
Mo2 O7 2.333(3) . ?
Mo2 O11 1.926(3) . ?
Mo2 O8 1.710(3) . ?
Mo2 O9 1.703(3) . ?
O2 H2A 0.9800 . ?
O2 Cr1 1.978(3) . ?
O4 Cr1 1.978(3) . ?
O4 H4 0.93(5) . ?
O7 H7 0.9800 . ?
O7 Cr1 1.973(3) . ?
O16 C12 1.246(5) . ?
O13 C4 1.236(5) . ?
O18 H18A 0.8499 . ?
O18 H18B 0.8497 . ?
O15 C16 1.250(5) . ?
O14 C6 1.230(6) . ?
O19 H19A 0.8500 . ?
O19 H19B 0.8500 . ?
N8 C12 1.354(5) . ?
N8 C13 1.346(5) . ?
O17 H17D 0.8498 . ?
O17 H17E 0.8500 . ?
N9 H9A 0.8600 . ?
N9 H9B 0.8600 . ?
N9 C13 1.343(6) . ?
O20 H20A 0.8503 . ?
O20 H20B 0.8501 . ?
N3 C18 1.371(6) . ?
N3 C16 1.372(5) . ?
N3 C17 1.470(5) . ?
N2 C16 1.359(5) . ?
N2 C20 1.356(5) . ?
N11 C4 1.360(5) . ?
N11 C5 1.341(5) . ?
N7 C12 1.389(5) . ?
N7 C15 1.373(5) . ?
N7 C11 1.466(5) . ?
N10 C4 1.396(5) . ?
N10 C2 1.364(6) . ?
N10 C1 1.463(6) . ?
N5 C10 1.348(6) . ?
N5 C6 1.358(6) . ?
N1 H1D 0.8600 . ?
N1 H1E 0.8600 . ?
N1 C20 1.303(5) . ?
N4 H4A 0.8600 . ?
N4 H4B 0.8600 . ?
N4 C10 1.321(7) . ?
N12 H12A 0.8600 . ?
N12 H12B 0.8600 . ?
N12 C5 1.325(6) . ?
N6 C6 1.399(6) . ?
N6 C8 1.355(6) . ?
N6 C7 1.465(7) . ?
C13 C14 1.416(5) . ?
C18 H18 0.9300 . ?
C18 C19 1.345(6) . ?
C19 H19 0.9300 . ?
C19 C20 1.427(6) . ?
C15 H15 0.9300 . ?
C15 C14 1.355(6) . ?
C3 H3 0.9300 . ?
C3 C5 1.427(6) . ?
C3 C2 1.353(6) . ?
C10 C9 1.418(6) . ?
C9 H9 0.9300 . ?
C9 C8 1.361(7) . ?
C2 H2 0.9300 . ?
C11 H11A 0.9600 . ?
C11 H11B 0.9600 . ?
C11 H11C 0.9600 . ?
C17 H17A 0.9600 . ?
C17 H17B 0.9600 . ?
C17 H17C 0.9600 . ?
C14 H14 0.9300 . ?
C8 H8 0.9300 . ?
C1 H1A 0.9600 . ?
C1 H1B 0.9600 . ?
C1 H1C 0.9600 . ?
C7 H7A 0.9600 . ?
C7 H7B 0.9600 . ?
C7 H7C 0.9600 . ?

loop_
_geom_angle_atom_site_label_1
_geom_angle_atom_site_label_2
_geom_angle_atom_site_label_3
_geom_angle
_geom_angle_site_symmetry_1
_geom_angle_site_symmetry_3
_geom_angle_publ_flag
N5 Ag1 N11 161.91(14) . . ?
O1 Mo3 O6 149.38(11) . . ?
O1 Mo3 O2 71.75(10) . . ?
O1 Mo3 O4 84.68(11) . . ?
O6 Mo3 O2 82.24(10) . . ?
O6 Mo3 O4 71.58(10) . . ?
O2 Mo3 O4 71.23(9) . . ?
O5 Mo3 O1 97.39(12) . . ?
O5 Mo3 O6 101.82(12) . . ?
O5 Mo3 O2 159.33(12) . . ?
O5 Mo3 O4 90.64(12) . . ?
O5 Mo3 O3 105.51(14) . . ?
O3 Mo3 O1 101.67(12) . . ?
O3 Mo3 O6 95.92(12) . . ?
O3 Mo3 O2 94.08(12) . . ?
O3 Mo3 O4 161.53(12) . . ?
O1 Mo1 O2 70.42(10) 3_766 3_766 ?
O1 Mo1 O7 81.51(11) 3_766 . ?
O7 Mo1 O2 70.47(9) . 3_766 ?
O11 Mo1 O1 148.63(11) . 3_766 ?
O11 Mo1 O2 84.81(10) . 3_766 ?
O11 Mo1 O7 72.02(10) . . ?
O10 Mo1 O1 96.43(12) . 3_766 ?
O10 Mo1 O2 159.65(11) . 3_766 ?
O10 Mo1 O7 92.73(12) . . ?
O10 Mo1 O11 101.25(13) . . ?
O10 Mo1 O12 106.14(14) . . ?
O12 Mo1 O1 101.83(13) . 3_766 ?
O12 Mo1 O2 92.05(12) . 3_766 ?
O12 Mo1 O7 160.19(11) . . ?
O12 Mo1 O11 97.88(12) . . ?
O6 Mo2 O4 70.78(10) . . ?
O6 Mo2 O7 83.45(10) . . ?
O4 Mo2 O7 70.55(9) . . ?
O11 Mo2 O6 148.07(11) . . ?
O11 Mo2 O4 82.59(10) . . ?
O11 Mo2 O7 71.00(10) . . ?
O8 Mo2 O6 96.61(13) . . ?
O8 Mo2 O4 158.40(12) . . ?
O8 Mo2 O7 91.06(12) . . ?
O8 Mo2 O11 102.54(13) . . ?
O9 Mo2 O6 100.40(13) . . ?
O9 Mo2 O4 93.70(12) . . ?
O9 Mo2 O7 161.75(12) . . ?
O9 Mo2 O11 98.54(13) . . ?
O9 Mo2 O8 106.06(14) . . ?
Mo3 O1 Mo1 120.10(14) . 3_766 ?
Mo3 O6 Mo2 119.72(14) . . ?
Mo3 O2 Mo1 93.37(9) . 3_766 ?
Mo3 O2 H2A 118.3 . . ?
Mo1 O2 H2A 118.3 3_766 . ?
Cr1 O2 Mo3 102.42(10) . . ?
Cr1 O2 Mo1 102.12(11) . 3_766 ?
Cr1 O2 H2A 118.3 . . ?
Mo3 O4 Mo2 93.20(9) . . ?
Mo3 O4 H4 120(3) . . ?
Mo2 O4 H4 125(3) . . ?
Cr1 O4 Mo3 102.06(11) . . ?
Cr1 O4 Mo2 102.10(11) . . ?
Cr1 O4 H4 111(3) . . ?
Mo1 O7 Mo2 91.99(9) . . ?
Mo1 O7 H7 118.6 . . ?
Mo2 O7 H7 118.6 . . ?
Cr1 O7 Mo1 102.73(11) . . ?
Cr1 O7 Mo2 101.71(11) . . ?
Cr1 O7 H7 118.6 . . ?
Mo1 O11 Mo2 120.41(14) . . ?
H18A O18 H18B 104.5 . . ?
H19A O19 H19B 104.5 . . ?
C13 N8 C12 120.3(3) . . ?
H17D O17 H17E 104.5 . . ?
H9A N9 H9B 120.0 . . ?
C13 N9 H9A 120.0 . . ?
C13 N9 H9B 120.0 . . ?
H20A O20 H20B 104.5 . . ?
C18 N3 C16 120.6(3) . . ?
C18 N3 C17 121.8(3) . . ?
C16 N3 C17 117.4(3) . . ?
C20 N2 C16 121.7(3) . . ?
C4 N11 Ag1 116.2(3) . . ?
C5 N11 Ag1 121.2(3) . . ?
C5 N11 C4 122.0(4) . . ?
C12 N7 C11 118.7(3) . . ?
C15 N7 C12 120.5(4) . . ?
C15 N7 C11 120.7(3) . . ?
C4 N10 C1 118.9(3) . . ?
C2 N10 C4 120.4(4) . . ?
C2 N10 C1 120.6(4) . . ?
C10 N5 Ag1 128.6(3) . . ?
C10 N5 C6 122.0(4) . . ?
C6 N5 Ag1 109.3(3) . . ?
H1D N1 H1E 120.0 . . ?
C20 N1 H1D 120.0 . . ?
C20 N1 H1E 120.0 . . ?
H4A N4 H4B 120.0 . . ?
C10 N4 H4A 120.0 . . ?
C10 N4 H4B 120.0 . . ?
H12A N12 H12B 120.0 . . ?
C5 N12 H12A 120.0 . . ?
C5 N12 H12B 120.0 . . ?
C6 N6 C7 118.0(4) . . ?
C8 N6 C6 120.9(4) . . ?
C8 N6 C7 121.0(4) . . ?
O16 C12 N8 122.1(4) . . ?
O16 C12 N7 118.5(4) . . ?
N8 C12 N7 119.4(4) . . ?
N8 C13 C14 121.4(4) . . ?
N9 C13 N8 116.6(4) . . ?
N9 C13 C14 122.0(4) . . ?
N3 C18 H18 119.5 . . ?
C19 C18 N3 121.1(4) . . ?
C19 C18 H18 119.5 . . ?
O15 C16 N3 119.8(4) . . ?
O15 C16 N2 121.3(4) . . ?
N2 C16 N3 118.9(4) . . ?
C18 C19 H19 120.7 . . ?
C18 C19 C20 118.6(4) . . ?
C20 C19 H19 120.7 . . ?
N7 C15 H15 119.7 . . ?
C14 C15 N7 120.5(4) . . ?
C14 C15 H15 119.7 . . ?
N2 C20 C19 119.0(4) . . ?
N1 C20 N2 119.1(4) . . ?
N1 C20 C19 121.9(4) . . ?
O13 C4 N11 123.2(4) . . ?
O13 C4 N10 118.9(4) . . ?
N11 C4 N10 117.9(4) . . ?
C5 C3 H3 121.5 . . ?
C2 C3 H3 121.5 . . ?
C2 C3 C5 117.0(4) . . ?
N5 C10 C9 120.0(5) . . ?
N4 C10 N5 118.4(4) . . ?
N4 C10 C9 121.6(4) . . ?
C10 C9 H9 121.0 . . ?
C8 C9 C10 118.0(4) . . ?
C8 C9 H9 121.0 . . ?
N11 C5 C3 120.5(4) . . ?
N12 C5 N11 119.2(4) . . ?
N12 C5 C3 120.3(4) . . ?
N10 C2 H2 119.1 . . ?
C3 C2 N10 121.9(4) . . ?
C3 C2 H2 119.1 . . ?
O14 C6 N5 121.7(4) . . ?
O14 C6 N6 120.4(4) . . ?
N5 C6 N6 117.9(4) . . ?
N7 C11 H11A 109.5 . . ?
N7 C11 H11B 109.5 . . ?
N7 C11 H11C 109.5 . . ?
H11A C11 H11B 109.5 . . ?
H11A C11 H11C 109.5 . . ?
H11B C11 H11C 109.5 . . ?
N3 C17 H17A 109.5 . . ?
N3 C17 H17B 109.5 . . ?
N3 C17 H17C 109.5 . . ?
H17A C17 H17B 109.5 . . ?
H17A C17 H17C 109.5 . . ?
H17B C17 H17C 109.5 . . ?
C13 C14 H14 121.1 . . ?
C15 C14 C13 117.9(4) . . ?
C15 C14 H14 121.1 . . ?
N6 C8 C9 121.2(4) . . ?
N6 C8 H8 119.4 . . ?
C9 C8 H8 119.4 . . ?
N10 C1 H1A 109.5 . . ?
N10 C1 H1B 109.5 . . ?
N10 C1 H1C 109.5 . . ?
H1A C1 H1B 109.5 . . ?
H1A C1 H1C 109.5 . . ?
H1B C1 H1C 109.5 . . ?
N6 C7 H7A 109.5 . . ?
N6 C7 H7B 109.5 . . ?
N6 C7 H7C 109.5 . . ?
H7A C7 H7B 109.5 . . ?
H7A C7 H7C 109.5 . . ?
H7B C7 H7C 109.5 . . ?
O2 Cr1 O2 180.0 . 3_766 ?
O2 Cr1 O4 95.73(10) . 3_766 ?
O2 Cr1 O4 84.27(10) . . ?
O2 Cr1 O4 84.27(10) 3_766 3_766 ?
O2 Cr1 O4 95.73(10) 3_766 . ?
O4 Cr1 O4 180.00(12) 3_766 . ?
O7 Cr1 O2 84.60(11) . 3_766 ?
O7 Cr1 O2 84.60(11) 3_766 . ?
O7 Cr1 O2 95.40(11) 3_766 3_766 ?
O7 Cr1 O2 95.40(11) . . ?
O7 Cr1 O4 94.38(11) 3_766 . ?
O7 Cr1 O4 85.62(11) 3_766 3_766 ?
O7 Cr1 O4 85.62(11) . . ?
O7 Cr1 O4 94.38(11) . 3_766 ?
O7 Cr1 O7 180.0 3_766 . ?

loop_
_geom_torsion_atom_site_label_1
_geom_torsion_atom_site_label_2
_geom_torsion_atom_site_label_3
_geom_torsion_atom_site_label_4
_geom_torsion
_geom_torsion_site_symmetry_1
_geom_torsion_site_symmetry_2
_geom_torsion_site_symmetry_3
_geom_torsion_site_symmetry_4
_geom_torsion_publ_flag
Ag1 N11 C4 O13 9.2(5) . . . . ?
Ag1 N11 C4 N10 -170.8(3) . . . . ?
Ag1 N11 C5 N12 -6.3(5) . . . . ?
Ag1 N11 C5 C3 175.4(3) . . . . ?
Ag1 N5 C10 N4 -2.6(6) . . . . ?
Ag1 N5 C10 C9 177.5(3) . . . . ?
Ag1 N5 C6 O14 2.0(5) . . . . ?
Ag1 N5 C6 N6 -176.7(3) . . . . ?
N8 C13 C14 C15 -1.6(6) . . . . ?
N9 C13 C14 C15 178.9(4) . . . . ?
N3 C18 C19 C20 0.1(7) . . . . ?
N7 C15 C14 C13 -0.2(6) . . . . ?
N5 C10 C9 C8 0.1(6) . . . . ?
N4 C10 C9 C8 -179.8(4) . . . . ?
C12 N8 C13 N9 -178.4(3) . . . . ?
C12 N8 C13 C14 2.0(6) . . . . ?
C12 N7 C15 C14 1.4(6) . . . . ?
C13 N8 C12 O16 178.5(4) . . . . ?
C13 N8 C12 N7 -0.7(6) . . . . ?
C18 N3 C16 O15 178.0(4) . . . . ?
C18 N3 C16 N2 -2.7(6) . . . . ?
C18 C19 C20 N2 -0.5(6) . . . . ?
C18 C19 C20 N1 -178.9(4) . . . . ?
C16 N3 C18 C19 1.5(6) . . . . ?
C16 N2 C20 N1 177.6(4) . . . . ?
C16 N2 C20 C19 -0.8(6) . . . . ?
C15 N7 C12 O16 179.8(4) . . . . ?
C15 N7 C12 N8 -1.0(6) . . . . ?
C20 N2 C16 O15 -178.3(4) . . . . ?
C20 N2 C16 N3 2.4(6) . . . . ?
C4 N11 C5 N12 -176.4(4) . . . . ?
C4 N11 C5 C3 5.2(6) . . . . ?
C4 N10 C2 C3 4.1(6) . . . . ?
C10 N5 C6 O14 -179.2(4) . . . . ?
C10 N5 C6 N6 2.1(6) . . . . ?
C10 C9 C8 N6 -0.4(7) . . . . ?
C5 N11 C4 O13 179.8(4) . . . . ?
C5 N11 C4 N10 -0.1(5) . . . . ?
C5 C3 C2 N10 0.9(6) . . . . ?
C2 N10 C4 O13 175.5(4) . . . . ?
C2 N10 C4 N11 -4.6(6) . . . . ?
C2 C3 C5 N11 -5.6(6) . . . . ?
C2 C3 C5 N12 176.1(4) . . . . ?
C6 N5 C10 N4 178.9(4) . . . . ?
C6 N5 C10 C9 -1.0(6) . . . . ?
C6 N6 C8 C9 1.5(6) . . . . ?
C11 N7 C12 O16 2.0(6) . . . . ?
C11 N7 C12 N8 -178.8(4) . . . . ?
C11 N7 C15 C14 179.1(4) . . . . ?
C17 N3 C18 C19 176.5(4) . . . . ?
C17 N3 C16 O15 2.8(6) . . . . ?
C17 N3 C16 N2 -177.9(4) . . . . ?
C8 N6 C6 O14 179.0(4) . . . . ?
C8 N6 C6 N5 -2.3(6) . . . . ?
C1 N10 C4 O13 -6.1(6) . . . . ?
C1 N10 C4 N11 173.8(4) . . . . ?
C1 N10 C2 C3 -174.3(4) . . . . ?
C7 N6 C6 O14 2.7(6) . . . . ?
C7 N6 C6 N5 -178.5(4) . . . . ?
C7 N6 C8 C9 177.6(4) . . . . ?

_shelx_res_file                  
;
TITL mi-3_a.res in P2(1)/c
    mi-3.res
    created by SHELXL-2018/3 at 14:04:44 on 10-Jul-2021
REM Old TITL MI-3 in P21/c #14
REM SHELXT solution in P2(1)/c: R1 0.154, Rweak 0.006, Alpha 0.035
REM <I/s> 1.213 for 263 systematic absences, Orientation as input
REM Formula found by SHELXT: N16 O29 Mo8 C60
CELL 1.54184 11.1858 17.132 19.8332 90 104.611 90
ZERR 2 0.0001 0.0001 0.0001 0 0.001 0
LATT 1
SYMM -X,0.5+Y,0.5-Z
SFAC C H Ag Cr Mo N O
UNIT 80 156 4 2 12 48 80

L.S. 99
PLAN  99
CONF
list 4
MORE -1
BOND $H
fmap 2
acta
REM <olex2.extras>
REM <HklSrc "%./MI-3.hkl">
REM </olex2.extras>

WGHT    0.064300    9.387300
FVAR       0.12412
AG1   3    0.501250    0.498632    0.196690    11.00000    0.00898    0.02095 =
         0.01993    0.00258    0.00563    0.00216
MO3   5    0.969182    0.311835    0.459460    11.00000    0.00753    0.00745 =
         0.00984   -0.00020    0.00249    0.00000
MO1   5    0.877487    0.634433    0.380371    11.00000    0.00649    0.00951 =
         0.00885    0.00208    0.00114    0.00143
MO2   5    0.839511    0.445602    0.340775    11.00000    0.00655    0.01089 =
         0.00736   -0.00018    0.00066   -0.00151
O1    7    1.120535    0.319085    0.530147    11.00000    0.00562    0.00962 =
         0.01278    0.00116   -0.00080    0.00427
O6    7    0.823067    0.361624    0.402986    11.00000    0.00756    0.01013 =
         0.01059   -0.00167   -0.00121   -0.00194
O2    7    0.945514    0.403426    0.538073    11.00000    0.00287    0.01038 =
         0.00888    0.00158    0.00201    0.00221
AFIX  13
H2A   2    0.867542    0.404552    0.552076    11.00000   -1.50000
AFIX   0
O4    7    1.024153    0.430730    0.424720    11.00000    0.00580    0.00816 =
         0.00996    0.00204    0.00221   -0.00171
O7    7    0.837627    0.523953    0.436695    11.00000    0.00794    0.01070 =
         0.00995    0.00159    0.00266    0.00184
AFIX  13
H7    2    0.764423    0.523071    0.455347    11.00000   -1.50000
AFIX   0
O11   7    0.909268    0.545849    0.328820    11.00000    0.00781    0.01201 =
         0.00754   -0.00012    0.00171   -0.00237
O16   7    0.280523    0.461784    0.454317    11.00000    0.00973    0.01325 =
         0.02082    0.00266    0.00648    0.00005
O10   7    0.724869    0.650345    0.342941    11.00000    0.00807    0.01989 =
         0.01313    0.00383    0.00070    0.00347
O5    7    1.027461    0.266109    0.397492    11.00000    0.01359    0.01450 =
         0.01399   -0.00333    0.00237    0.00000
O13   7    0.665777    0.382129    0.139139    11.00000    0.01101    0.01587 =
         0.01886   -0.00148    0.00540   -0.00293
O12   7    0.957230    0.702895    0.345006    11.00000    0.01673    0.01229 =
         0.01531    0.00330    0.00497    0.00329
AFIX   6
O18   7    0.853708    0.772745    0.214665    11.00000    0.01666    0.02250 =
         0.01816    0.00429    0.00648    0.00260
H18A  2    0.902527    0.756118    0.251946    11.00000   -1.50000
H18B  2    0.899311    0.778993    0.186704    11.00000   -1.50000
AFIX   0
O3    7    0.892042    0.240477    0.492698    11.00000    0.01297    0.01215 =
         0.01282    0.00034   -0.00043    0.00056
O8    7    0.684885    0.460718    0.306729    11.00000    0.01271    0.01957 =
         0.01255    0.00093    0.00198   -0.00500
O15   7    0.305131    0.494616    0.045964    11.00000    0.01998    0.01560 =
         0.03009   -0.00463    0.01269   -0.00147
O9    7    0.889595    0.395041    0.279189    11.00000    0.02016    0.01400 =
         0.01526   -0.00403    0.00599   -0.00485
O14   7    0.383919    0.646222    0.207734    11.00000    0.01770    0.02881 =
         0.03423    0.01484    0.01611    0.00780

AFIX   6
O19   7    0.393957    0.776032    0.132183    11.00000    0.01281    0.01785 =
         0.06263    0.01598    0.01002    0.00754
H19A  2    0.372962    0.737461    0.153594    11.00000   -1.50000
H19B  2    0.327451    0.801545    0.116908    11.00000   -1.50000
AFIX   0

N8    6    0.282905    0.592868    0.435920    11.00000    0.00642    0.01431 =
         0.01522   -0.00100    0.00451   -0.00214
AFIX   6
O17   7    0.498906    0.330181    0.213723    11.00000    0.02877    0.03354 =
         0.04661    0.01584    0.01468    0.00371
H17D  2    0.485542    0.298753    0.179481    11.00000   -1.50000
H17E  2    0.527305    0.301625    0.249201    11.00000   -1.50000
AFIX   0
N9    6    0.289877    0.724899    0.420155    11.00000    0.00864    0.01492 =
         0.02674    0.00083    0.00831   -0.00042
AFIX  93
H9A   2    0.225493    0.728990    0.436156    11.00000   -1.20000
H9B   2    0.322641    0.765969    0.407441    11.00000   -1.20000
AFIX   6

O20   7    0.115661    0.586661    0.078099    11.00000    0.01753    0.02276 =
         0.03851    0.01246    0.01446    0.00615
H20A  2    0.183112    0.564848    0.076394    11.00000   -1.50000
H20B  2    0.112272    0.627556    0.053410    11.00000   -1.50000
AFIX   0

N3    6    0.281077    0.363396    0.034244    11.00000    0.00732    0.01345 =
         0.02181    0.00138    0.00666   -0.00144
N2    6    0.445739    0.427415    0.003564    11.00000    0.00995    0.01358 =
         0.01590   -0.00140    0.00273   -0.00346
N11   6    0.662855    0.513422    0.158616    11.00000    0.00897    0.01653 =
         0.01006    0.00167    0.00161   -0.00023
N7    6    0.433419    0.509109    0.409570    11.00000    0.00768    0.01465 =
         0.01679    0.00072    0.00722    0.00150
N10   6    0.830048    0.453041    0.126542    11.00000    0.00928    0.01557 =
         0.01876   -0.00207    0.00882   -0.00119
N5    6    0.332466    0.521644    0.225313    11.00000    0.00599    0.02941 =
         0.01357    0.00691    0.00023    0.00417
N1    6    0.582436    0.359395   -0.042905    11.00000    0.01347    0.01273 =
         0.02332    0.00125    0.00724   -0.00198
AFIX  93
H1D   2    0.619862    0.402539   -0.046192    11.00000   -1.20000
H1E   2    0.608773    0.316455   -0.056416    11.00000   -1.20000
AFIX   0
N4    6    0.278563    0.395096    0.241291    11.00000    0.01968    0.03152 =
         0.02162    0.00376    0.00738   -0.00570
AFIX  93
H4A   2    0.343085    0.379769    0.228907    11.00000   -1.20000
H4B   2    0.229893    0.361399    0.252461    11.00000   -1.20000
AFIX   0
N12   6    0.666245    0.645081    0.181598    11.00000    0.01876    0.01650 =
         0.02206   -0.00249    0.00675   -0.00339
AFIX  93
H12A  2    0.597373    0.640406    0.193040    11.00000   -1.20000
H12B  2    0.701175    0.690021    0.183422    11.00000   -1.20000
AFIX   0
N6    6    0.209798    0.626912    0.245700    11.00000    0.01056    0.03421 =
         0.01383    0.00376    0.00297    0.00455
C12   1    0.328622    0.519918    0.434029    11.00000    0.00872    0.01699 =
         0.01221   -0.00104    0.00127   -0.00201
C13   1    0.339269    0.654354    0.415020    11.00000    0.00742    0.01806 =
         0.01267   -0.00179    0.00108   -0.00271
C18   1    0.318993    0.293530    0.013041    11.00000    0.01733    0.01405 =
         0.02107   -0.00015    0.00680   -0.00315
AFIX  43
H18   2    0.274766    0.248385    0.016520    11.00000   -1.20000
AFIX   0
C16   1    0.342974    0.431116    0.028217    11.00000    0.01344    0.01714 =
         0.01667    0.00035    0.00699    0.00142
C19   1    0.419083    0.289205   -0.012704    11.00000    0.01639    0.01199 =
         0.02337   -0.00016    0.00954   -0.00140
AFIX  43
H19   2    0.444255    0.241661   -0.027107    11.00000   -1.20000
AFIX   0
C15   1    0.489296    0.571446    0.386507    11.00000    0.00254    0.02417 =
         0.01346   -0.00033   -0.00175   -0.00275
AFIX  43
H15   2    0.558329    0.563337    0.369304    11.00000   -1.20000
AFIX   0
C20   1    0.485856    0.359087   -0.017462    11.00000    0.00988    0.01386 =
         0.01271    0.00378   -0.00069    0.00089
C4    1    0.715067    0.446978    0.141669    11.00000    0.01324    0.01931 =
         0.00708    0.00251   -0.00011    0.00341
C3    1    0.831121    0.590741    0.140336    11.00000    0.01039    0.01887 =
         0.01095    0.00184   -0.00120   -0.00502
AFIX  43
H3    2    0.867139    0.639260    0.137985    11.00000   -1.20000
AFIX   0
C10   1    0.254205    0.470427    0.243155    11.00000    0.00935    0.03482 =
         0.00915    0.00286   -0.00025   -0.00256
C9    1    0.148593    0.497846    0.263223    11.00000    0.01210    0.04088 =
         0.01650    0.00027    0.00251   -0.00657
AFIX  43
H9    2    0.093836    0.463263    0.275762    11.00000   -1.20000
AFIX   0
C5    1    0.718551    0.583031    0.161157    11.00000    0.00756    0.01974 =
         0.00692    0.00160   -0.00401   -0.00001
C2    1    0.883125    0.524302    0.124165    11.00000    0.01275    0.02158 =
         0.01442    0.00009    0.00439   -0.00289
AFIX  43
H2    2    0.957170    0.527328    0.111057    11.00000   -1.20000
AFIX   0
C6    1    0.312844    0.599872    0.224763    11.00000    0.01303    0.02982 =
         0.01776    0.00941    0.00680    0.00719
C11   1    0.480317    0.429651    0.406482    11.00000    0.01524    0.01797 =
         0.02195   -0.00124    0.00988    0.00334
AFIX 137
H11A  2    0.495188    0.405948    0.451701    11.00000   -1.50000
H11B  2    0.556057    0.431523    0.392124    11.00000   -1.50000
H11C  2    0.420426    0.399440    0.373600    11.00000   -1.50000
AFIX   0
C17   1    0.167946    0.369899    0.058783    11.00000    0.01464    0.02376 =
         0.01876   -0.00430    0.00566   -0.00547
AFIX 137
H17A  2    0.104952    0.395571    0.023952    11.00000   -1.50000
H17B  2    0.184907    0.399683    0.101138    11.00000   -1.50000
H17C  2    0.140105    0.318689    0.067284    11.00000   -1.50000
AFIX   0
C14   1    0.444678    0.644689    0.388607    11.00000    0.01065    0.01722 =
         0.01808    0.00090    0.00786   -0.00297
AFIX  43
H14   2    0.482105    0.687246    0.373191    11.00000   -1.20000
AFIX   0
C8    1    0.129859    0.576316    0.263563    11.00000    0.01183    0.04393 =
         0.01328   -0.00161    0.00134    0.00013
AFIX  43
H8    2    0.060940    0.595567    0.276286    11.00000   -1.20000
AFIX   0
C1    1    0.893994    0.381652    0.115120    11.00000    0.02040    0.02206 =
         0.03981   -0.01092    0.01998   -0.00506
AFIX 137
H1A   2    0.887307    0.343373    0.149329    11.00000   -1.50000
H1B   2    0.979553    0.393029    0.119170    11.00000   -1.50000
H1C   2    0.857081    0.361712    0.069367    11.00000   -1.50000
AFIX   0
C7    1    0.186770    0.711162    0.243527    11.00000    0.01126    0.03920 =
         0.01963    0.00581    0.00220    0.01339
AFIX 137
H7A   2    0.262079    0.738151    0.264738    11.00000   -1.50000
H7B   2    0.125710    0.722867    0.268458    11.00000   -1.50000
H7C   2    0.157431    0.727679    0.195960    11.00000   -1.50000
AFIX   0
CR1   4    1.000000    0.500000    0.500000    10.50000    0.00412    0.00649 =
         0.00766   -0.00022    0.00142   -0.00038
H4    2    1.102111    0.437887    0.417293    11.00000    0.00766
HKLF 4




REM  mi-3_a.res in P2(1)/c
REM wR2 = 0.1087, GooF = S = 1.108, Restrained GooF = 1.108 for all data
REM R1 = 0.0363 for 7114 Fo > 4sig(Fo) and 0.0403 for all 7415 data
REM 531 parameters refined using 0 restraints

END

WGHT      0.0643      9.3793

REM Highest difference peak  1.017,  deepest hole -1.510,  1-sigma level  0.194
Q1    1   0.7592  0.6350  0.3741  11.00000  0.05    1.02
Q2    1   0.8698  0.5768  0.4299  11.00000  0.05    0.96
Q3    1   0.3777  0.4973  0.1861  11.00000  0.05    0.96
Q4    1   1.0554  0.3129  0.5085  11.00000  0.05    0.94
Q5    1   0.5312  0.4387  0.1902  11.00000  0.05    0.92
Q6    1   0.7849  0.3353  0.3832  11.00000  0.05    0.79
Q7    1   0.8973  0.5691  0.3789  11.00000  0.05    0.78
Q8    1   1.0865  0.3097  0.4670  11.00000  0.05    0.74
Q9    1   0.8438  0.3133  0.4432  11.00000  0.05    0.73
Q10   1   0.6592  0.4452  0.2770  11.00000  0.05    0.72
Q11   1   0.9631  0.4423  0.3534  11.00000  0.05    0.72
Q12   1   0.5173  0.5613  0.1916  11.00000  0.05    0.72
Q13   1   1.1194  0.2551  0.5443  11.00000  0.05    0.72
Q14   1   0.9987  0.6352  0.3869  11.00000  0.05    0.71
Q15   1   0.5963  0.4997  0.2615  11.00000  0.05    0.71
Q16   1   0.9258  0.4305  0.3868  11.00000  0.05    0.71
Q17   1   0.8414  0.5167  0.3387  11.00000  0.05    0.71
Q18   1   0.9169  0.5363  0.4694  11.00000  0.05    0.68
Q19   1   0.9787  0.2404  0.4567  11.00000  0.05    0.67
Q20   1   0.7527  0.4824  0.3055  11.00000  0.05    0.66
Q21   1   0.7965  0.6549  0.3377  11.00000  0.05    0.66
Q22   1   1.1658  0.2854  0.5347  11.00000  0.05    0.65
Q23   1   0.4784  0.4836  0.0017  11.00000  0.05    0.65
Q24   1   0.4228  0.5337  0.1597  11.00000  0.05    0.64
Q25   1   0.4268  0.4988  0.1465  11.00000  0.05    0.62
Q26   1   0.6642  0.4035  0.2608  11.00000  0.05    0.61
Q27   1   0.8270  0.5776  0.3785  11.00000  0.05    0.61
Q28   1   0.6958  0.6028  0.3085  11.00000  0.05    0.61
Q29   1   0.9742  0.3837  0.4235  11.00000  0.05    0.60
Q30   1   0.5550  0.3593  0.2063  11.00000  0.05    0.59
Q31   1   0.7243  0.4580  0.3359  11.00000  0.05    0.58
Q32   1   0.9099  0.5206  0.4559  11.00000  0.05    0.58
Q33   1   0.8454  0.1807  0.4985  11.00000  0.05    0.58
Q34   1   0.3004  0.2239  0.0654  11.00000  0.05    0.58
Q35   1   0.9861  0.3798  0.4618  11.00000  0.05    0.57
Q36   1   0.8929  0.5021  0.3525  11.00000  0.05    0.57
Q37   1   1.1386  0.2595  0.4433  11.00000  0.05    0.57
Q38   1   0.8059  0.4816  0.4405  11.00000  0.05    0.57
Q39   1   0.2022  0.4008  0.2001  11.00000  0.05    0.56
Q40   1   0.6186  0.4979  0.2068  11.00000  0.05    0.56
Q41   1   0.3378  0.5044  0.2856  11.00000  0.05    0.56
Q42   1   0.4416  0.4447  0.1827  11.00000  0.05    0.55
Q43   1   0.6582  0.3210  0.1268  11.00000  0.05    0.54
Q44   1   0.5812  0.3193  0.4757  11.00000  0.05    0.54
Q45   1   0.9645  0.4521  0.5468  11.00000  0.05    0.54
Q46   1   1.1425  0.2984  0.5770  11.00000  0.05    0.54
Q47   1   0.6031  0.3021  0.0127  11.00000  0.05    0.53
Q48   1   0.5401  0.3446  0.1816  11.00000  0.05    0.53
Q49   1   0.2975  0.5579  0.4453  11.00000  0.05    0.53
Q50   1   0.5053  0.3757  0.0993  11.00000  0.05    0.53
Q51   1   0.1026  0.7182  0.4084  11.00000  0.05    0.53
Q52   1   0.2395  0.5162  0.3589  11.00000  0.05    0.53
Q53   1   0.8168  0.6855  0.3758  11.00000  0.05    0.53
Q54   1   0.8377  0.8368  0.2187  11.00000  0.05    0.53
Q55   1   0.5246  0.2861  0.0459  11.00000  0.05    0.53
Q56   1   0.6428  0.5910  0.3372  11.00000  0.05    0.53
Q57   1   0.3273  0.5000  0.1359  11.00000  0.05    0.53
Q58   1   0.6959  0.5329  0.2728  11.00000  0.05    0.52
Q59   1   0.5783  0.3759  0.2647  11.00000  0.05    0.52
Q60   1   1.0379  0.3765  0.2038  11.00000  0.05    0.52
Q61   1   0.1438  0.2631  0.0900  11.00000  0.05    0.52
Q62   1   0.9472  0.2584  0.3996  11.00000  0.05    0.52
Q63   1   0.2231  0.6574  0.3588  11.00000  0.05    0.52
Q64   1   0.7090  0.7450  0.3020  11.00000  0.05    0.52
Q65   1   0.4549  0.7259  0.4484  11.00000  0.05    0.51
Q66   1   0.6775  0.5766  0.4768  11.00000  0.05    0.51
Q67   1   0.3817  0.6680  0.3090  11.00000  0.05    0.51
Q68   1   1.0071  0.2551  0.5128  11.00000  0.05    0.51
Q69   1   1.0312  0.4036  0.5898  11.00000  0.05    0.51
Q70   1   0.9159  0.3555  0.6043  11.00000  0.05    0.51
Q71   1   1.0371  0.4267  0.1847  11.00000  0.05    0.51
Q72   1   0.8998  0.7412  0.3294  11.00000  0.05    0.51
Q73   1   0.3648  0.7799  0.0907  11.00000  0.05    0.51
Q74   1   0.9521  0.6351  0.4295  11.00000  0.05    0.51
Q75   1   0.1640  0.7191  0.1131  11.00000  0.05    0.50
Q76   1   0.8981  0.3611  0.4410  11.00000  0.05    0.50
Q77   1   0.8771  0.3211  0.3991  11.00000  0.05    0.50
Q78   1   0.9204  0.2566  0.4604  11.00000  0.05    0.50
Q79   1   0.6700  0.3392  0.2895  11.00000  0.05    0.50
Q80   1   0.5988  0.4007  0.3090  11.00000  0.05    0.50
Q81   1   0.5756  0.3458  0.2720  11.00000  0.05    0.49
Q82   1   0.8035  0.5571  0.4585  11.00000  0.05    0.49
Q83   1   0.3330  0.4594  0.4871  11.00000  0.05    0.49
Q84   1   1.0733  0.7487  0.3624  11.00000  0.05    0.49
Q85   1   0.5285  0.6174  0.2773  11.00000  0.05    0.49
Q86   1   0.4407  0.3744  0.1779  11.00000  0.05    0.49
Q87   1   0.2130  0.6786  0.4586  11.00000  0.05    0.49
Q88   1   0.4778  0.4331  0.2373  11.00000  0.05    0.49
Q89   1   1.0268  0.4523  0.3962  11.00000  0.05    0.49
Q90   1  -0.0196  0.5752  0.2156  11.00000  0.05    0.49
Q91   1   0.4968  0.4390  0.1440  11.00000  0.05    0.48
Q92   1   0.9592  0.2575  0.5129  11.00000  0.05    0.48
Q93   1   0.2804  0.4855  0.1657  11.00000  0.05    0.48
Q94   1   0.3605  0.7045  0.2696  11.00000  0.05    0.48
Q95   1   0.8589  0.3197  0.3170  11.00000  0.05    0.48
Q96   1   0.8225  0.2440  0.4590  11.00000  0.05    0.48
Q97   1   0.8589  0.3835  0.0790  11.00000  0.05    0.48
Q98   1   0.0671  0.5863  0.0290  11.00000  0.05    0.47
Q99   1   1.1764  0.3004  0.4861  11.00000  0.05    0.47
;
_shelx_res_checksum              13748
_shelx_hkl_file                  
;
   0   0   1    0.65    0.17
   0   0   2   43.25    2.40
   0   0   3    0.81    0.41
   0   0   4   15.14    1.62
   0   0   4   21.02    1.80
   0   0   5    0.12    0.45
   0   0   5    0.26    0.39
   0   0   5    0.55    0.44
   0   0   6  166.38    8.11
   0   0   6  177.74    8.62
   0   0   7    0.77    0.53
   0   0   7    1.00    0.56
   0   0   7    0.16    0.55
   0   0   7   -0.18    0.69
   0   0   8    0.66    0.51
   0   0   8    2.33    0.82
   0   0   8    1.51    0.83
   0   0   8    1.11    0.80
   0   0   9    1.74    0.72
   0   0   9    0.33    0.61
   0   0   9    0.86    0.75
   0   0   9    0.50    0.77
   0   0  10   80.19    5.69
   0   0  10   86.14    6.47
   0   0  10   91.89    7.01
   0   0  11    1.04    0.76
   0   0  11    1.13    0.87
   0   0  12  317.39   17.40
   0   0  13    0.57    0.45
   0   0  13    1.07    0.92
   0   0  13    1.05    0.58
   0   0  13    0.29    0.53
   0   0  14   94.22    5.14
   0   0  14   93.97    8.01
   0   0  14   86.08    5.69
   0   0  14   81.90    4.96
   0   0  15    0.86    1.00
   0   0  15   -0.18    0.68
   0   0  15    0.46    0.62
   0   0  16    4.64    1.94
   0   0  16    6.46    1.20
   0   0  16    5.68    1.37
   0   0  17   -0.20    0.71
   0   0  17   -0.25    1.15
   0   0  17    0.49    0.97
   0   0  17    2.00    1.09
   0   0  17    1.76    0.77
   0   0  18   29.57    2.57
   0   0  18   23.52    3.20
   0   0  18   26.11    4.49
   0   0  18   24.61    3.07
   0   0  18   28.07    3.04
   0   0  19   -0.24    0.93
   0   0  19    0.89    0.83
   0   0  19    1.06    1.04
   0   0  19    0.97    0.75
   0   0  20   90.58    6.34
   0   0  20   96.26    5.43
   0   0  20   91.11    6.62
   0   0  21    0.51    0.83
   0   0  21    0.39    0.93
   0   0  22   92.28    5.62
   0   0  22   89.83    5.85
   0   0  23    0.75    0.63
   0   0  24  244.32   11.17
   0   1   0    0.21    0.09
   0   1   1  633.46   26.79
   0   1   1  669.34   26.67
   0   1   2    7.53    0.83
   0   1   2    9.03    0.85
   0   1   3   36.54    2.45
   0   1   3   33.51    2.66
   0   1   3   39.72    2.43
   0  -1   4    2.46    0.92
   0   1   4    2.59    0.46
   0   1   4    2.59    0.67
   0  -1   4    3.38    0.74
   0   1   4    4.77    0.90
   0  -1   5 1104.12   44.20
   0   1   5 1108.14   43.98
   0   1   5 1098.23   44.34
   0   1   5  940.86   43.01
   0  -1   5  986.58   44.75
   0   1   5 1197.57   44.27
   0   1   6  805.60   36.04
   0  -1   6  802.79   37.86
   0  -1   6  957.96   37.59
   0   1   6  881.62   37.03
   0  -1   6  851.10   36.41
   0   1   6  966.62   37.45
   0   1   6  944.47   38.66
   0  -1   7  166.37   10.19
   0  -1   7  177.59    9.91
   0  -1   7  186.67    9.09
   0   1   7  183.07    9.60
   0   1   7  207.09   10.06
   0  -1   8   54.33    4.96
   0  -1   8   60.80    4.19
   0  -1   8   65.32    5.08
   0   1   8   72.98    4.88
   0   1   8   77.56    5.21
   0  -1   9  166.12   10.47
   0  -1   9  171.57    9.34
   0   1   9  195.65   10.22
   0  -1   9  182.52   10.72
   0   1   9  199.11   10.66
   0  -1  10   13.07    2.26
   0   1  10   11.83    2.18
   0  -1  10   16.00    2.65
   0  -1  10   15.89    1.99
   0   1  10   11.22    2.01
   0   1  11   11.24    2.21
   0  -1  11    8.30    2.01
   0   1  11    5.89    1.57
   0  -1  11    8.15    1.56
   0   1  12    2.92    1.36
   0   1  13  184.06   11.70
   0  -1  13  160.89    8.85
   0   1  13  154.35    8.67
   0   1  13  177.44    8.28
   0   1  13  162.66    8.21
   0   1  14   59.75    6.24
   0  -1  14   57.91    4.37
   0   1  14   55.08    4.20
   0   1  14   56.81    3.72
   0   1  14   56.98    3.76
   0   1  15  448.42   23.47
   0   1  15  406.89   19.41
   0  -1  15  399.15   19.54
   0   1  15  431.04   18.67
   0   1  15  410.60   18.64
   0   1  16   20.17    2.50
   0  -1  16   18.58    2.52
   0   1  16   23.55    4.05
   0   1  16   22.04    2.20
   0   1  17  125.24   10.63
   0  -1  17  107.88    7.88
   0  -1  17  112.83    7.74
   0  -1  17  128.50    7.84
   0   1  17  118.73    7.52
   0   1  17  139.78    7.04
   0   1  18  277.97   18.29
   0   1  18  298.92   14.13
   0  -1  18  298.95   15.34
   0  -1  18  302.65   15.09
   0   1  18  290.87   14.84
   0   1  18  301.24   14.04
   0  -1  18  307.21   15.83
   0  -1  19  171.14    9.82
   0   1  19  161.03    9.26
   0   1  19  167.11    8.62
   0  -1  19  178.17   10.28
   0  -1  20   72.20    5.19
   0   1  20   61.69    4.51
   0  -1  20   65.04    5.21
   0   1  20   65.36    4.22
   0  -1  21  158.83    8.67
   0  -1  21  147.97    8.80
   0  -1  22    2.82    0.97
   0  -1  22    3.62    1.14
   0  -1  23   28.00    2.48
   0  -1  24   21.23    1.78
   0  -2   0 1825.85   74.91
   0  -2   1   48.22    2.44
   0   2   1   56.66    2.48
   0  -2  -1   55.21    3.07
   0   2   1   58.49    2.89
   0   2   2 1022.06   37.13
   0   2   2  963.99   37.44
   0   2   3   23.27    1.70
   0  -2   3   19.29    1.59
   0   2   3   22.84    1.85
   0   2   4  106.49    5.40
   0  -2   4   97.99    5.29
   0  -2   4   93.21    6.46
   0  -2   5  109.21    6.25
   0   2   5  129.19    6.82
   0   2   5  126.64    6.48
   0  -2   5  102.14    7.30
   0  -2   5  120.37    6.45
   0   2   6  213.71   10.34
   0   2   6  201.26    9.83
   0  -2   6  194.00    9.68
   0  -2   6  167.57   10.72
   0  -2   6  181.43    8.75
   0   2   6  191.29    9.82
   0  -2   6  192.03    9.79
   0  -2   7  353.12   19.49
   0   2   7  387.97   19.72
   0   2   7  446.62   18.71
   0  -2   7  397.43   18.29
   0  -2   7  393.81   18.45
   0  -2   7  376.80   17.20
   0   2   7  405.33   18.50
   0  -2   8  344.26   18.48
   0   2   8  368.62   19.02
   0  -2   8  369.22   17.25
   0   2   8  381.13   17.46
   0   2   8  342.35   17.11
   0  -2   8  362.40   17.48
   0  -2   8  341.08   15.93
   0  -2   9    5.53    1.04
   0   2   9    5.50    1.36
   0   2   9    5.76    1.51
   0  -2   9    5.71    1.40
   0  -2   9    6.76    1.61
   0  -2   9    7.06    1.86
   0  -2  10   26.98    2.54
   0   2  10   29.86    3.35
   0  -2  10   24.23    3.29
   0   2  10   28.92    3.43
   0  -2  10   27.77    3.31
   0  -2  10   28.21    3.78
   0   2  11  105.23    7.51
   0   2  11  112.80    7.96
   0  -2  11   98.91    7.72
   0  -2  11  102.21    7.57
   0  -2  11  100.55    8.04
   0  -2  12  165.36    7.96
   0   2  12  165.73    8.02
   0   2  12  158.08    8.08
   0  -2  12  163.26    8.71
   0   2  12  176.22   11.12
   0  -2  12  172.64   10.92
   0  -2  13    3.16    1.01
   0   2  13    2.96    0.95
   0  -2  13    4.20    0.83
   0   2  13    4.54    0.90
   0  -2  13    2.78    1.28
   0   2  13    5.53    1.91
   0   2  13    2.15    0.73
   0   2  14  144.62   10.50
   0  -2  14  124.38    9.81
   0   2  14  117.60    7.41
   0  -2  14  132.17    7.86
   0   2  14  135.19    7.14
   0  -2  14  135.88    6.97
   0   2  14  145.15    7.15
   0  -2  15  127.82   10.03
   0   2  15  123.83   10.09
   0   2  15  121.05    7.31
   0  -2  15  128.90    7.75
   0   2  15  122.15    6.83
   0  -2  15  116.68    6.58
   0   2  15  134.39    6.86
   0   2  16   79.77    7.90
   0  -2  16   74.09    7.47
   0  -2  16   72.52    4.62
   0   2  16   80.17    4.83
   0   2  16   76.97    4.87
   0  -2  16   70.51    5.42
   0   2  16   77.06    5.37
   0  -2  17  173.55   13.01
   0   2  17  183.24   13.55
   0  -2  17  187.87    9.33
   0   2  17  195.74    9.50
   0  -2  17  192.58   11.00
   0   2  17  181.46   10.98
   0  -2  17  191.99   10.66
   0   2  17  168.47   10.46
   0  -2  17  194.59   10.57
   0   2  17  172.29   10.02
   0  -2  18    0.20    0.86
   0   2  18    1.45    0.87
   0   2  18    0.26    0.98
   0  -2  18    0.24    0.96
   0  -2  18    0.46    0.93
   0   2  18    0.49    1.14
   0  -2  18    0.21    1.06
   0   2  18    1.13    1.08
   0  -2  18    1.08    0.61
   0   2  18    0.77    0.66
   0   2  19  262.92   14.40
   0  -2  19  286.01   14.44
   0   2  19  279.24   12.78
   0  -2  19  259.81   12.55
   0   2  19  271.30   14.11
   0  -2  19  279.64   13.98
   0   2  19  265.81   12.85
   0   2  19  249.84   13.24
   0  -2  20   85.02    5.58
   0   2  20   72.73    5.42
   0   2  20   66.96    4.73
   0  -2  20   72.71    5.52
   0   2  20   69.86    5.58
   0   2  21    0.17    0.74
   0  -2  21    0.48    0.66
   0  -2  21    1.46    0.99
   0   2  21    1.37    1.06
   0   2  21    0.86    0.59
   0   2  22   99.98    6.35
   0  -2  22  112.78    6.41
   0   2  22  101.19    6.08
   0  -2  22  100.36    5.97
   0  -2  23   22.18    2.15
   0   2  23   22.82    2.24
   0  -3   0    0.55    0.59
   0  -3  -1  338.49   13.48
   0  -3   1  336.12   14.37
   0   3   1  332.72   12.65
   0  -3   1  263.14   11.74
   0   3   1  286.33   11.75
   0  -3  -2   26.01    1.96
   0   3   2   25.71    1.58
   0  -3   2   24.98    1.58
   0   3   2   28.66    2.08
   0   3   3  391.44   15.36
   0   3   3  368.69   15.86
   0  -3   4  467.31   21.47
   0   3   4  521.38   21.62
   0   3   4  527.76   22.15
   0   3   5   97.54    5.44
   0  -3   5   92.44    5.32
   0   3   5   98.88    5.91
   0  -3   5   89.22    6.88
   0  -3   6   28.90    2.60
   0  -3   6   22.25    1.63
   0  -3   6   24.05    2.33
   0   3   6   28.92    2.55
   0  -3   6   26.20    3.46
   0  -3   7   40.03    3.35
   0  -3   7   32.31    2.24
   0   3   7   32.29    3.23
   0   3   7   41.17    3.38
   0  -3   7   35.38    3.12
   0  -3   7   40.93    4.52
   0   3   8    3.34    1.17
   0  -3   8    4.96    0.80
   0   3   8    6.92    1.43
   0  -3   8    4.06    1.17
   0  -3   8    6.18    1.36
   0  -3   8    3.09    1.44
   0   3   9   93.16    6.66
   0  -3   9   79.99    4.89
   0  -3   9   99.05    6.69
   0  -3   9  100.51    6.56
   0   3   9  109.33    6.90
   0  -3   9  100.01    8.08
   0   3  10  763.72   36.47
   0  -3  10  812.65   36.56
   0   3  10  879.72   36.87
   0  -3  10  801.52   36.24
   0  -3  10  757.88   38.08
   0  -3  11  247.65   13.80
   0   3  11  252.03   14.09
   0  -3  11  229.05   13.77
   0  -3  11  247.65   15.25
   0   3  12  123.59    7.29
   0  -3  12  155.22    6.99
   0   3  12  134.82    6.91
   0  -3  12  122.59    7.54
   0   3  12  132.34    9.61
   0  -3  12  164.17   10.09
   0   3  12  144.59    7.21
   0  -3  13 1533.50   62.83
   0   3  13 1603.39   63.02
   0  -3  13 1493.70   64.03
   0   3  13 1435.17   63.53
   0   3  13 1662.00   67.86
   0  -3  13 1516.85   66.88
   0   3  13 1489.27   63.15
   0  -3  14  478.12   20.85
   0   3  14  483.73   20.99
   0   3  14  471.92   21.20
   0   3  14  463.93   21.61
   0  -3  14  485.48   22.16
   0  -3  14  473.05   24.78
   0   3  14  486.27   25.40
   0   3  15    3.45    0.89
   0  -3  15    4.80    0.96
   0   3  15    3.67    1.06
   0  -3  15    1.76    0.88
   0   3  15    2.39    0.86
   0  -3  15    2.48    1.51
   0   3  15    5.41    2.09
   0  -3  16   55.47    3.70
   0   3  16   53.93    3.76
   0  -3  16   51.44    4.69
   0   3  16   56.57    4.95
   0  -3  16   51.60    6.13
   0   3  16   57.96    6.64
   0  -3  16   59.39    4.73
   0   3  16   47.97    4.08
   0   3  16   51.54    3.85
   0  -3  17   33.45    2.75
   0   3  17   38.11    3.00
   0  -3  17   37.70    3.85
   0   3  17   39.23    4.12
   0   3  17   37.97    5.34
   0  -3  17   31.26    4.79
   0   3  17   30.98    3.18
   0  -3  17   30.81    3.39
   0   3  17   31.75    3.55
   0   3  18  104.27    5.93
   0  -3  18  103.78    5.81
   0   3  18   99.85    7.27
   0  -3  18  107.36    7.18
   0   3  18   92.84    8.97
   0  -3  18   99.75    8.99
   0   3  18   96.99    6.90
   0  -3  18  100.48    6.79
   0   3  18   96.70    6.38
   0   3  19   26.46    3.35
   0  -3  19   28.97    3.29
   0   3  19   28.66    2.57
   0  -3  19   27.59    2.43
   0   3  19   30.10    3.35
   0  -3  19   33.06    3.31
   0   3  19   27.33    2.79
   0  -3  20   39.79    3.52
   0   3  20   37.12    3.56
   0   3  20   39.47    3.03
   0   3  20   33.59    2.95
   0   3  20   34.45    3.66
   0  -3  20   33.04    3.49
   0  -3  21    3.27    1.11
   0   3  21    3.65    1.14
   0   3  21    2.49    1.16
   0  -3  21    1.72    1.06
   0   3  21    3.18    0.86
   0   3  22    7.83    1.49
   0  -3  22    9.46    1.50
   0  -3  22    9.91    1.45
   0   3  22    9.54    1.51
   0   3  23    1.97    0.73
   0  -3  23    2.95    0.78
   0  -4   0   26.17    2.84
   0  -4  -1  262.17   12.93
   0  -4   1  267.08   13.78
   0  -4  -2  116.39    6.02
   0   4   2  108.08    4.75
   0  -4   2   95.48    4.71
   0   4   2  106.43    5.61
   0   4   3   25.56    2.27
   0  -4   3   23.29    1.72
   0   4   3   24.19    1.73
   0   4   4  552.76   24.32
   0   4   4  591.74   24.81
   0   4   4  605.67   25.52
   0  -4   4  507.32   23.40
   0   4   4  556.58   23.52
   0  -4   5  901.60   42.73
   0   4   5  971.49   40.60
   0   4   5  967.85   41.65
   0   4   5  998.46   40.94
   0   4   5  988.68   39.80
   0  -4   5  862.94   39.54
   0  -4   6  419.52   19.96
   0   4   6  468.89   18.06
   0   4   6  471.45   19.20
   0  -4   6  410.71   16.54
   0   4   6  462.63   16.91
   0  -4   7   12.58    2.72
   0  -4   7   11.25    0.93
   0  -4   7   13.76    1.86
   0   4   7   16.87    2.79
   0  -4   7   14.68    1.89
   0   4   7   18.22    2.12
   0  -4   8  612.17   31.35
   0  -4   8  618.08   28.39
   0   4   8  600.30   30.54
   0  -4   8  640.08   28.44
   0   4   8  673.54   28.74
   0  -4   9    1.27    1.30
   0   4   9    4.76    1.31
   0  -4   9    2.75    1.09
   0  -4   9    1.31    0.80
   0   4   9    1.57    0.91
   0  -4  10  183.22   12.92
   0   4  10  167.27   11.04
   0  -4  10  192.83   10.99
   0  -4  10  172.23   10.57
   0   4  10  199.33   11.21
   0  -4  11  148.07    7.34
   0   4  11  170.37    7.60
   0   4  11  150.59    7.76
   0  -4  11  145.09    8.21
   0  -4  11  133.90   11.20
   0  -4  11  162.86   10.16
   0   4  11  165.97   10.34
   0  -4  11  161.38   10.01
   0  -4  12  142.85    7.01
   0   4  12  142.01    7.09
   0   4  12  140.53    7.41
   0  -4  12  134.01    7.90
   0   4  12  141.31    7.64
   0  -4  12  160.91   10.08
   0   4  12  145.36    9.99
   0  -4  13  112.03    5.86
   0   4  13  111.75    5.97
   0   4  13  118.00    6.35
   0  -4  13  102.94    6.74
   0   4  13  109.14    6.50
   0  -4  13  108.32    8.50
   0   4  13  113.45    8.91
   0   4  14  125.95    6.58
   0  -4  14  120.31    6.39
   0   4  14  120.32    7.07
   0  -4  14  126.40    7.61
   0  -4  14  123.47    9.47
   0   4  14  130.22   10.00
   0   4  14  113.99    6.72
   0  -4  15  159.15    8.22
   0   4  15  169.03    8.47
   0   4  15  163.58    8.71
   0   4  15  164.90    9.06
   0  -4  15  174.99    9.72
   0   4  15  165.33   12.19
   0  -4  15  155.02   11.49
   0  -4  16    2.01    0.79
   0   4  16    1.50    0.76
   0  -4  16    5.06    1.44
   0   4  16    3.98    1.44
   0   4  16    2.75    1.00
   0   4  16    2.89    1.67
   0  -4  16    0.43    1.11
   0   4  16    3.94    1.04
   0   4  16    2.66    1.18
   0  -4  16    3.33    1.14
   0   4  17   22.02    4.13
   0  -4  17   23.09    3.97
   0  -4  17   21.55    2.89
   0   4  17   23.40    3.14
   0  -4  17   24.81    2.21
   0   4  17   22.82    2.25
   0   4  17   24.17    2.45
   0  -4  17   22.46    2.73
   0   4  17   21.44    2.84
   0   4  17   18.27    2.38
   0   4  18   45.64    6.07
   0  -4  18   60.80    6.53
   0  -4  18   61.30    3.94
   0   4  18   57.30    4.00
   0   4  18   62.10    5.30
   0  -4  18   65.91    5.17
   0   4  18   61.01    4.99
   0  -4  18   64.44    4.88
   0   4  18   54.85    4.32
   0  -4  19   51.34    3.42
   0   4  19   53.77    3.62
   0   4  19   46.63    4.54
   0  -4  19   54.31    4.51
   0  -4  19   53.42    4.28
   0   4  19   46.32    4.27
   0   4  19   39.73    3.58
   0   4  20  299.01    8.83
   0   4  20  304.21    7.31
   0  -4  20  305.77    8.39
   0  -4  20  315.33    9.08
   0   4  20  285.66    9.24
   0   4  21  168.78    9.18
   0  -4  21  196.26    9.56
   0   4  21  176.43    8.86
   0   4  21  176.53    9.64
   0  -4  21  204.94    9.98
   0   4  21  186.45   10.12
   0   4  22    4.69    1.14
   0  -4  22    5.99    1.20
   0  -4  23   35.61    2.51
   0   4  23   31.26    2.55
   0  -5   0    1.13    0.74
   0  -5   1  265.46   14.58
   0  -5  -1  279.13   13.99
   0   5   2 1029.13   39.93
   0  -5   2  885.00   39.89
   0  -5   2 1273.97   45.25
   0  -5  -2 1223.72   42.73
   0  -5   3  895.73   38.55
   0   5   3  888.38   35.49
   0   5   3  863.96   34.09
   0  -5   4  179.79   11.67
   0   5   4  197.13    8.59
   0   5   4  205.12   10.74
   0   5   4  191.22   10.01
   0   5   4  188.11    9.63
   0  -5   5   89.33    5.20
   0   5   5   94.91    5.28
   0   5   5   95.05    6.11
   0   5   5  101.74    6.54
   0   5   5   93.03    6.86
   0  -5   6  588.41   31.18
   0   5   6  674.48   27.79
   0  -5   6  601.31   27.52
   0   5   6  631.06   28.70
   0   5   6  649.97   30.11
   0   5   6  653.72   29.19
   0  -5   7  118.95    9.56
   0  -5   7  100.57    6.47
   0   5   7  124.54    6.92
   0  -5   7  114.21    6.71
   0   5   7  110.25    7.44
   0   5   7  107.83    8.31
   0   5   7  112.55    7.67
   0  -5   8   23.60    4.08
   0  -5   8   20.04    2.44
   0   5   8   25.59    2.79
   0  -5   8   17.62    2.30
   0   5   8   20.10    3.40
   0  -5   9  210.90   11.56
   0   5   9  225.49   11.89
   0  -5   9  215.12   14.66
   0   5   9  213.21   14.04
   0  -5   9  190.27   11.29
   0   5   9  213.25    9.48
   0  -5  10   15.11    3.51
   0  -5  10   17.69    2.54
   0   5  10   17.41    2.61
   0   5  10   18.48    3.65
   0   5  10   18.58    1.53
   0  -5  10   14.94    1.36
   0  -5  10   15.69    2.43
   0  -5  11  154.51   12.47
   0   5  11  171.34    7.84
   0  -5  11  153.65    7.62
   0  -5  11  158.28    8.70
   0   5  11  166.66   10.55
   0  -5  11  169.72   10.31
   0  -5  11  159.26   10.14
   0   5  11  163.94    8.24
   0  -5  12   13.75    1.42
   0   5  12   15.78    1.58
   0   5  12   15.67    1.79
   0  -5  12   15.00    2.05
   0  -5  12   14.77    3.57
   0   5  12   15.43    1.88
   0   5  12   17.19    2.95
   0  -5  12   13.35    2.55
   0   5  13  107.32    5.61
   0  -5  13   96.61    5.36
   0   5  13  103.30    5.97
   0  -5  13  106.26    6.62
   0   5  13   99.96    6.09
   0  -5  13   95.19    7.86
   0   5  13   93.32    8.08
   0   5  14   29.94    2.43
   0  -5  14   27.44    2.26
   0   5  14   30.01    2.71
   0   5  14   26.81    2.71
   0   5  14   27.13    4.18
   0  -5  14   22.96    3.70
   0  -5  15  209.93    9.79
   0   5  15  209.79   10.00
   0  -5  15  220.58   11.36
   0   5  15  182.43   11.19
   0   5  15  201.24   10.38
   0   5  15  173.80   10.75
   0  -5  15  201.66   10.83
   0   5  15  201.00   10.58
   0  -5  15  202.06   13.37
   0   5  15  211.93   14.07
   0  -5  16   12.48    1.50
   0   5  16   11.00    1.52
   0   5  16   10.78    2.16
   0  -5  16    8.92    1.84
   0   5  16    8.96    1.67
   0  -5  16   13.77    2.09
   0   5  16   12.65    2.12
   0   5  16    8.89    2.63
   0  -5  16    9.07    2.46
   0   5  16   10.95    1.69
   0   5  17   10.99    1.49
   0  -5  17    9.91    1.37
   0  -5  17   11.38    2.07
   0   5  17    9.22    1.93
   0   5  17   10.00    1.67
   0   5  17    7.03    1.77
   0  -5  17   12.45    2.03
   0   5  17   11.44    2.72
   0  -5  17    9.16    2.44
   0   5  17    7.77    1.50
   0   5  18    2.42    1.25
   0  -5  18    1.66    1.02
   0  -5  18    1.05    0.60
   0   5  18    0.97    0.61
   0  -5  18    1.09    0.97
   0   5  18    1.27    1.04
   0   5  18    1.74    0.84
   0   5  19    3.09    0.91
   0   5  19    3.16    1.22
   0  -5  19    4.21    1.22
   0   5  19    3.16    1.43
   0  -5  19    3.65    1.22
   0   5  19    3.11    1.11
   0   5  20  290.44   13.84
   0  -5  20  318.47   14.36
   0   5  20  278.31   14.41
   0   5  20  288.12   14.85
   0  -5  20  318.00   14.70
   0   5  20  278.86   14.24
   0   5  21   59.23    4.15
   0   5  21   52.12    3.54
   0  -5  21   56.18    3.82
   0  -5  21   57.56    4.08
   0   5  21   60.23    4.42
   0   5  21   51.38    3.78
   0   5  22   17.74    1.55
   0   5  22   18.75    2.07
   0  -5  22   22.69    2.05
   0   5 -23  153.70    6.96
   0  -6   0  683.16   31.78
   0  -6  -1  749.61   34.11
   0  -6   1  759.38   35.13
   0  -6  -2    5.09    1.34
   0  -6   2    4.97    1.72
   0   6   3  267.50   11.08
   0  -6   3  241.71   11.05
   0  -6   4  206.06   12.73
   0   6   4  188.24    8.31
   0   6   5   79.14    4.48
   0  -6   5   73.13    4.42
   0   6   5   85.36    6.62
   0  -6   6   48.74    3.49
   0   6   6   46.22    3.44
   0   6   6   53.29    4.75
   0   6   6   46.87    4.92
   0  -6   7  138.42   10.98
   0  -6   7  137.08    7.53
   0  -6   7  125.29    7.33
   0   6   7  132.38    7.46
   0   6   7  126.43    8.71
   0   6   7  127.55    9.50
   0  -6   8  283.80   17.81
   0  -6   8  256.11   11.57
   0   6   8  274.25   11.66
   0  -6   8  265.37   13.45
   0   6   8  287.19   13.77
   0  -6   8  271.31   13.58
   0   6   8  303.19   16.91
   0  -6   9  275.60   17.98
   0  -6   9  258.34   13.86
   0   6   9  271.58   11.85
   0  -6   9  265.90   11.79
   0   6   9  275.90   14.17
   0  -6   9  287.98   14.18
   0   6   9  279.10   17.13
   0   6  10  168.13    9.94
   0  -6  10  150.55    9.42
   0   6  10  169.63   12.53
   0  -6  10  148.12    7.21
   0  -6  10  144.21    9.22
   0   6  10  164.61    7.38
   0  -6  10  145.97   12.41
   0  -6  11   89.13    4.75
   0   6  11   96.02    4.91
   0   6  11   85.45    5.47
   0  -6  11   93.32    9.52
   0   6  11   94.26    5.44
   0   6  11  100.21    7.39
   0  -6  11   84.20    6.74
   0  -6  11   95.52    6.96
   0   6  12  569.74   25.67
   0  -6  12  600.55   28.36
   0   6  12  644.06   29.13
   0  -6  12  582.27   24.88
   0   6  12  607.60   25.06
   0  -6  12  571.27   32.29
   0   6  12  553.05   25.79
   0  -6  13    6.22    0.97
   0   6  13    6.36    1.04
   0   6  13    8.02    1.44
   0   6  13    7.75    1.38
   0  -6  13    8.32    2.09
   0   6  13    5.22    1.85
   0   6  14  107.14    6.79
   0   6  14  110.47    7.43
   0  -6  14  117.30    7.31
   0   6  14  115.96    9.37
   0  -6  14  118.32    9.06
   0  -6  14  124.97    7.17
   0   6  14   98.65    6.96
   0   6  14  121.83    6.91
   0   6  14  124.51    6.38
   0  -6  14  123.17    6.18
   0  -6  15  113.00    5.87
   0   6  15  108.77    5.98
   0   6  15   95.29    7.00
   0  -6  15  117.21    7.18
   0  -6  15  107.62    8.71
   0   6  15  106.83    9.13
   0   6  15  100.77    6.46
   0   6  15   95.78    6.77
   0   6  15  109.89    6.54
   0  -6  15  112.44    6.80
   0  -6  16   83.92    4.88
   0   6  16   84.38    5.07
   0   6  16   74.11    6.08
   0  -6  16   96.87    6.32
   0   6  16   76.05    7.71
   0  -6  16   90.85    7.90
   0   6  16   85.84    5.65
   0   6  16   94.27    5.77
   0   6  16   73.78    5.81
   0  -6  16   93.44    5.93
   0  -6  17  105.01    5.60
   0   6  17  100.98    5.75
   0  -6  17  111.61    6.91
   0   6  17   89.28    6.78
   0   6  17   96.30    6.20
   0   6  17   87.50    6.49
   0   6  17  105.71    6.34
   0  -6  17  118.06    6.74
   0   6  17   81.30    8.25
   0  -6  17   99.40    8.49
   0   6  18   65.40    4.90
   0   6  18   49.51    4.67
   0  -6  18   60.30    4.66
   0   6  18   58.58    4.72
   0  -6  18   71.61    4.76
   0   6  18   52.12    4.11
   0  -6  19    3.29    1.10
   0   6  19    1.25    1.05
   0   6  19    0.64    0.33
   0   6  19    2.72    0.98
   0  -6  19    2.85    1.00
   0   6  19    2.71    1.11
   0  -6  20   69.31    4.37
   0   6  20   60.33    4.45
   0   6  20   57.27    4.36
   0   6  20   60.47    4.71
   0  -6  20   68.34    4.57
   0   6  21    0.81    0.56
   0   6  21    1.21    0.56
   0  -6  21    2.13    0.82
   0   6  21    0.88    0.68
   0   6  22    9.71    1.02
   0  -6  22   10.29    1.16
   0   6 -23  167.45    7.37
   0  -7   0    0.63    0.97
   0  -7  -1  119.37    8.60
   0  -7   1  146.78    9.97
   0  -7  -2  180.54   10.91
   0  -7   2  201.77   12.80
   0   7   3  435.84   17.13
   0   7   3  560.10   17.66
   0   7  -3  319.50   16.63
   0  -7   3  638.46   25.11
   0   7   4   60.80    3.28
   0  -7   4   56.44    3.24
   0   7   4   64.07    3.54
   0   7   5 1036.41   41.48
   0  -7   5  833.85   36.89
   0   7   5  850.29   36.88
   0  -7   5 1039.43   44.12
   0   7   5  914.97   36.92
   0   7   6   27.07    2.35
   0  -7   6   26.08    2.31
   0  -7   7  586.83   30.06
   0  -7   7  542.19   23.96
   0   7   7  537.44   23.93
   0  -7   7  500.44   23.75
   0   7   7  576.00   26.73
   0   7   7  556.93   27.64
   0  -7   8  500.18   25.98
   0  -7   8  397.11   17.54
   0  -7   8  428.05   19.50
   0  -7   8  420.50   19.53
   0   7   8  444.24   19.73
   0   7   8  456.26   23.62
   0   7   8  452.96   22.20
   0   7   9  850.76   40.42
   0   7   9  802.67   35.98
   0  -7   9  794.10   35.81
   0  -7   9  899.77   42.45
   0   7   9  822.03   33.96
   0  -7   9  790.28   33.50
   0  -7   9  852.76   35.88
   0   7  10   31.40    3.57
   0  -7  10   26.85    3.29
   0  -7  10   29.33    5.31
   0   7  10   36.70    3.00
   0  -7  10   31.96    2.13
   0   7  10   33.68    2.20
   0  -7  10   35.70    3.57
   0   7  10   36.20    5.45
   0   7  11   32.07    5.42
   0   7  11   36.10    2.42
   0  -7  11   36.22    2.37
   0   7  11   34.87    3.04
   0  -7  11   46.64    6.72
   0   7  11   42.29    3.18
   0  -7  11   29.79    3.67
   0  -7  11   33.28    3.68
   0   7  11   32.33    3.91
   0   7  12    3.78    0.76
   0  -7  12    3.83    0.71
   0   7  12    2.72    0.91
   0   7  12    3.48    1.00
   0   7  12    3.20    0.99
   0   7  12    1.69    0.81
   0   7  12    2.24    1.18
   0  -7  12    4.11    1.44
   0   7  13   39.90    3.39
   0   7  13   33.52    4.47
   0  -7  13   39.60    4.55
   0  -7  13   42.89    3.59
   0   7  13   33.92    3.46
   0   7  13   45.10    2.92
   0  -7  13   39.31    2.68
   0  -7  13   38.66    3.27
   0   7  13   38.52    3.42
   0   7  13   38.51    3.29
   0   7  14   27.89    2.79
   0   7  14   29.78    3.16
   0  -7  14   28.46    2.95
   0  -7  14   27.11    2.17
   0   7  14   26.68    2.27
   0   7  14   29.44    2.97
   0   7  14   31.12    2.93
   0  -7  14   32.32    2.91
   0   7  14   23.37    3.79
   0  -7  14   26.67    3.81
   0  -7  15   45.51    5.11
   0   7  15   35.83    4.87
   0   7  15   38.51    3.84
   0  -7  15   44.69    3.87
   0   7  15   42.65    3.07
   0  -7  15   43.69    2.97
   0   7  15   43.09    3.61
   0  -7  15   45.72    3.70
   0   7  15   44.54    3.89
   0   7  15   43.44    3.64
   0  -7  16  176.98    9.25
   0   7  16  149.83    9.23
   0   7  16  169.36    9.14
   0   7  16  161.40    9.57
   0  -7  16  181.62    9.63
   0   7  16  156.46    9.61
   0   7  16  170.26    8.40
   0  -7  16  167.87    8.18
   0  -7  16  176.10   11.59
   0   7  16  156.82    8.93
   0   7  17  331.95   17.61
   0  -7  17  407.86   17.67
   0   7  17  358.61   17.04
   0   7  17  335.39   17.25
   0  -7  17  386.68   17.18
   0   7  17  332.54   16.79
   0   7  17  383.79   17.85
   0  -7  18  114.11    6.48
   0   7  18   84.43    6.27
   0  -7  18  107.68    6.12
   0   7  18   97.36    6.30
   0   7  18   85.50    5.62
   0   7  18   96.77    6.44
   0   7  19   25.22    2.61
   0  -7  19   27.05    2.49
   0   7  19   20.16    2.59
   0  -7  19   28.82    2.72
   0   7  19   28.65    2.91
   0  -7  20    5.60    1.19
   0   7  20    5.69    1.27
   0   7  20    7.22    1.34
   0   7  21   46.32    2.53
   0   7  21   42.06    2.62
   0   7  22   32.46    2.24
   0   7 -22   37.05    2.22
   0  -8   0  293.80   16.94
   0   8   1   12.81    1.28
   0  -8  -1   16.25    2.81
   0  -8   1   15.05    3.08
   0   8   2  267.78   12.33
   0  -8  -2  289.87   15.54
   0   8   3   33.55    3.79
   0  -8   3   34.61    4.89
   0   8   3   25.10    2.01
   0  -8   4    3.01    1.64
   0   8   4    2.51    0.66
   0  -8   5   13.85    3.52
   0   8   5   13.01    1.71
   0   8   5   17.97    3.09
   0   8   5   12.56    1.41
   0   8   6  183.71   11.92
   0   8   6  177.85    8.16
   0   8   7  136.92   10.28
   0  -8   7  111.42    6.57
   0  -8   7  121.83    6.80
   0   8   7  127.74    6.55
   0   8   8  119.37    6.15
   0   8   8  141.98    9.84
   0   8   8  130.56   10.41
   0   8   8  110.46    6.86
   0  -8   8  128.85    7.08
   0  -8   8  134.47   11.82
   0  -8   8   95.07    6.55
   0   8   8  131.41    6.65
   0   8   9    2.63    1.72
   0   8   9    2.46    0.91
   0  -8   9    1.85    0.83
   0   8   9    2.73    0.87
   0  -8   9    0.66    0.76
   0   8   9    1.92    0.57
   0  -8  10 1197.20   51.30
   0   8  10 1393.96   60.39
   0  -8  10 1276.94   53.96
   0   8  10 1215.29   53.97
   0  -8  10 1396.82   62.12
   0   8  10 1370.43   53.10
   0  -8  11  140.75    6.76
   0  -8  11  160.11   13.82
   0   8  11  149.29    8.09
   0   8  11  157.23   13.02
   0   8  11  142.35    9.14
   0  -8  11  133.26    8.83
   0  -8  12  155.32    7.24
   0   8  12  144.13    8.29
   0   8  12  135.22    7.97
   0   8  12  156.86    8.39
   0   8  12  167.11    8.60
   0  -8  12  154.34    9.81
   0  -8  13    8.59    1.96
   0  -8  13    8.59    1.05
   0   8  13    6.09    0.96
   0   8  13    6.95    1.46
   0   8  13    6.89    1.32
   0   8  13    7.32    1.42
   0   8  13    7.34    1.44
   0  -8  14   27.95    2.09
   0   8  14   27.52    2.19
   0   8  14   26.26    2.70
   0  -8  14   23.78    3.40
   0   8  14   29.13    2.86
   0   8  14   20.77    2.46
   0   8  14   27.45    2.93
   0   8  15   23.59    2.57
   0   8  15   19.80    2.36
   0   8  15   20.38    2.36
   0   8  15   22.79    2.79
   0   8  15   17.91    2.45
   0   8  16  858.80   33.97
   0   8  16  719.15   33.52
   0   8  16  765.21   33.45
   0   8  16  836.30   34.54
   0   8  16  695.49   33.80
   0   8  17    1.87    1.02
   0   8  17    1.98    1.00
   0   8  17    2.75    1.03
   0   8  17    3.98    1.19
   0   8  17    2.57    0.89
   0   8  18   11.37    1.58
   0   8  18    9.95    1.69
   0   8  18    9.59    1.59
   0   8  19   66.42    3.99
   0   8  19   -0.15    0.00
   0   8  20    0.41    0.55
   0   8 -20    0.96    0.56
   0   8  21    8.86    1.18
   0   8 -21    6.69    0.96
   0   8 -22    5.90    0.70
   0  -9   0    0.81    1.15
   0  -9   1  221.33   14.59
   0  -9  -1  216.62   13.73
   0  -9   2  423.34   22.68
   0   9   2  372.50   16.64
   0   9   3  476.07   23.12
   0  -9   3  501.85   26.02
   0  -9  -3  432.03   18.92
   0   9   3  434.20   19.18
   0   9   4  318.21   16.90
   0   9   4  287.16   16.86
   0  -9   4  338.60   19.94
   0  -9  -4  282.23   12.89
   0   9   4  291.18   13.25
   0   9   5  360.88   20.26
   0   9   5  355.57   16.21
   0   9   6   38.77    2.71
   0   9   6   36.90    5.07
   0  -9   6   44.83    6.53
   0   9  -6   35.54    2.71
   0   9   6   38.21    2.88
   0   9   7    3.31    1.64
   0   9   7    2.34    0.76
   0   9   7    4.56    0.86
   0   9   8   13.11    1.67
   0   9   8   13.49    3.27
   0   9   8   13.24    1.51
   0   9   8   12.96    1.35
   0   9   9  461.98   26.85
   0   9   9  465.62   20.40
   0   9   9  475.62   21.24
   0  -9   9  512.18   29.57
   0   9   9  474.04   21.55
   0   9  10   71.99    8.26
   0   9  10   61.84    4.39
   0   9  10   58.16    4.42
   0  -9  10   66.28    8.69
   0   9  11    9.36    1.61
   0   9  11    9.11    1.60
   0   9  11    5.30    2.44
   0   9  12    5.38    1.36
   0   9  12    4.02    1.13
   0   9  13   18.40    2.27
   0   9  14  182.89    9.66
   0   9  14  169.07    9.39
   0   9  15   52.38    4.03
   0   9  15   52.19    4.16
   0   9  16   94.39    6.25
   0   9  16   82.21    5.44
   0   9  16   93.13    5.90
   0   9  17   98.87    6.47
   0   9  17   89.41    5.59
   0   9  17  106.18    6.27
   0   9  18    3.99    1.19
   0   9 -18    2.29    0.89
   0   9  19   37.43    3.25
   0   9 -19   38.65    2.78
   0   9  20    7.29    1.22
   0   9 -20    8.52    1.06
   0   9 -21    6.16    0.81
   0   9  21    8.96    1.11
   0 -10   0   37.23    5.11
   0 -10   1   88.37    8.54
   0 -10   2   31.90    5.15
   0  10   3  183.95   11.94
   0  10   3  156.61    8.11
   0  10   3  167.38    8.25
   0 -10  -4  982.38   40.87
   0  10  -4 1000.95   41.17
   0  10   4  960.32   41.21
   0  10   4  957.06   41.11
   0  10   4 1024.22   45.95
   0  10   4  963.23   45.86
   0 -10   4 1118.86   50.10
   0  10   5    5.00    0.96
   0  10  -5    5.71    0.99
   0  10   5    4.30    0.98
   0  10   5    5.76    2.12
   0  10   5    9.48    2.39
   0 -10   5   11.67    3.60
   0  10  -6   28.09    2.42
   0  10   6   32.48    2.67
   0  10   6   26.70    4.40
   0  10   6   30.81    2.47
   0 -10   6   35.52    5.97
   0 -10   7    7.17    2.99
   0  10   7    4.24    1.04
   0  10   7    6.46    0.86
   0  10   7    2.06    1.47
   0  10  -7    3.28    0.84
   0  10   7    4.74    0.94
   0  10   8  186.66    9.43
   0  10  -8  173.67    8.99
   0  10   8  187.86    8.60
   0  10   8  172.73    8.94
   0  10   8  179.35   13.81
   0  10  -9   64.80    4.16
   0  10   9   62.53    4.46
   0  10   9   65.37    7.93
   0 -10   9   70.06    9.18
   0  10   9   65.25    4.74
   0  10  10   35.65    3.34
   0 -10  10   37.77    6.79
   0  10  10   36.42    3.22
   0  10 -10   40.51    3.03
   0  10  10   34.90    3.15
   0  10  10   30.46    5.49
   0  10  11    6.85    1.43
   0  10  11    9.42    1.65
   0  10  11    9.20    1.58
   0  10  12  194.89   10.30
   0  10  12  185.46   10.26
   0  10  12  199.41   10.49
   0  10  13    1.69    0.83
   0  10  13    1.85    0.96
   0  10  14    0.97    0.79
   0  10  15   38.55    3.28
   0  10 -15   40.90    3.17
   0  10  15   37.66    3.46
   0  10  16   29.29    2.71
   0  10 -16   35.95    2.83
   0  10  16   29.46    2.97
   0  10 -17   13.02    1.63
   0  10  17   11.39    1.83
   0  10  17   11.39    1.73
   0  10  18  190.52   10.13
   0  10 -18  196.01    9.36
   0  10 -19   29.66    1.89
   0  10  19   27.64    2.31
   0  10 -20   78.71    4.14
   0  10  20   82.15    4.71
   0  10 -21    4.16    0.60
   0  10  21    5.01    0.80
   0  11   0    0.86    0.51
   0  11  -1   13.51    1.57
   0 -11   1   15.73    3.59
   0  11   1   13.69    1.60
   0  11  -2  106.61    5.92
   0 -11   2  128.60   11.07
   0  11   2  114.87    9.38
   0  11   2  104.71    5.91
   0  11  -3 2250.54   93.82
   0  11   3 2259.23   93.80
   0  11   3 2213.89   98.76
   0  11   3 2391.80   99.64
   0  11  -4    4.39    0.95
   0  11   4    6.14    1.09
   0  11   4    8.38    1.32
   0  11   4    3.63    1.75
   0  11   4    5.00    1.98
   0  11  -5   32.29    2.62
   0  11   5   31.18    2.71
   0  11   5   30.81    4.76
   0  11   5   31.96    4.81
   0  11   5   31.77    2.65
   0 -11   5   30.87    5.87
   0  11  -6   51.40    3.63
   0  11   6   52.78    3.86
   0  11   6   57.44    6.65
   0  11   6   57.84    3.82
   0  11   6   55.60    6.71
   0 -11   6   62.91    8.48
   0  11  -7    3.04    0.85
   0  11   7    3.09    0.85
   0  11   7    3.05    0.95
   0  11   7    1.66    1.28
   0  11   7    2.02    1.43
   0 -11   7    3.88    2.37
   0  11   8    7.24    1.23
   0  11  -8    7.72    1.25
   0  11   8    8.34    2.68
   0  11   8    8.71    1.49
   0  11  -9   40.20    3.05
   0  11   9   33.46    3.39
   0  11   9   44.38    6.49
   0  11   9   36.39    3.28
   0  11   9   43.78    3.48
   0  11 -10  147.39    7.65
   0  11  10  140.95    8.37
   0  11  10  143.81    8.09
   0  11  10  141.71    8.13
   0  11  10  127.35   12.40
   0  11 -11  137.00    7.42
   0  11  11  141.01    8.18
   0  11  11  131.89    7.87
   0  11  11  146.75    8.16
   0  11  12    9.22    1.64
   0  11  12    8.26    1.67
   0  11  12   10.19    1.72
   0  11 -12    7.78    1.39
   0  11  13    6.04    1.34
   0  11  13    4.03    1.21
   0  11  13    4.54    1.26
   0  11 -13    3.39    0.99
   0  11  14   15.33    2.21
   0  11  14   15.16    2.00
   0  11 -14   17.25    1.93
   0  11 -15   64.27    4.09
   0  11  15   53.72    4.02
   0  11 -16   17.94    1.93
   0  11  17    5.29    1.21
   0  11 -17    5.26    1.03
   0  11 -18    2.98    0.74
   0  11  18    2.20    0.83
   0  11 -19   43.15    2.03
   0  11  19   38.64    2.52
   0  11 -20   46.05    2.64
   0  11  20   54.22    3.26
   0  12   0    7.96    1.31
   0  12   1    0.24    0.53
   0  12  -1    0.96    0.59
   0  12   1    0.97    1.25
   0  12   2    1.98    0.72
   0  12  -2    1.06    0.61
   0  12   2    0.99    1.14
   0  12  -3    5.72    1.15
   0  12   3    4.71    1.04
   0  12   3    7.78    2.31
   0  12   3    7.48    2.45
   0  12  -4  428.33   18.28
   0  12   4  390.09   18.32
   0  12   4  414.35   23.75
   0 -12   4  449.55   26.87
   0  12  -5  179.85    8.76
   0  12   5  165.43    8.82
   0  12   5  160.75   12.86
   0  12   5  138.05   12.05
   0  12   5  174.19    8.90
   0  12   6    2.71    1.40
   0  12   6    3.80    2.08
   0  12   6    3.22    0.96
   0  12   6    3.51    1.01
   0  12  -6    2.34    0.84
   0  12   7    0.58    0.67
   0  12   7    1.11    0.91
   0  12   7    1.77    0.82
   0  12  -7    2.01    0.76
   0  12   7    1.09    0.71
   0  12   8  246.62   12.18
   0  12  -8  259.44   11.76
   0  12   8  205.80   16.40
   0  12   8  239.79   11.85
   0  12   8  245.10   16.95
   0  12   8  230.33   11.91
   0  12  -9   48.02    3.41
   0  12   9   42.79    3.94
   0  12   9   41.74    3.60
   0  12   9   46.48    6.66
   0  12   9   45.19    3.67
   0  12 -10  308.37   14.38
   0  12  10  304.10   15.36
   0  12  10  311.01   15.05
   0  12  10  310.46   14.97
   0  12 -11  344.72   15.20
   0  12  11  300.65   15.81
   0  12  11  336.49   15.89
   0  12  11  317.24   15.70
   0  12 -12    3.65    0.95
   0  12  12    4.38    1.20
   0  12  12    3.95    1.20
   0  12  12    2.82    1.03
   0  12 -13   14.54    1.76
   0  12  13   12.44    1.84
   0  12  13   13.01    2.01
   0  12  13   15.35    2.09
   0  12 -14   55.40    3.75
   0  12  14   48.58    3.83
   0  12  14   54.99    4.30
   0  12  14   60.73    4.37
   0  12 -15  383.66    7.59
   0  12  15  373.08    9.27
   0  12  15  365.60    9.01
   0  12 -16    5.29    1.04
   0  12 -17    5.24    0.94
   0  12 -18   78.35    4.17
   0  12 -19   13.45    1.19
   0  12  19   14.80    1.59
   0  12  20   69.60    3.82
   0  13   0    2.11    1.49
   0  13   0    0.40    0.59
   0  13   1  160.67   12.79
   0  13  -1  165.47    8.41
   0  13   1  152.02    8.34
   0  13   2   13.37    1.74
   0  13   2    9.76    2.85
   0  13  -2   13.50    1.73
   0  13   3    5.54    2.22
   0  13  -3    3.67    0.99
   0  13   3    3.84    1.01
   0  13   4   48.89    6.50
   0  13   4   41.65    3.41
   0  13  -4   43.80    3.30
   0  13   5  645.29   34.66
   0  13   5  628.45   28.46
   0  13  -5  673.35   28.27
   0  13  -6  159.94    7.95
   0  13   6  133.66    7.70
   0  13   6  158.37   12.84
   0  13   6  151.47    8.13
   0  13  -7   60.44    3.96
   0  13   7   57.97    4.18
   0  13   7   56.19    4.06
   0  13   7   58.08    7.36
   0  13   7   47.90    3.79
   0  13   8   37.78    3.21
   0  13  -8   38.15    3.04
   0  13   8   40.88    3.40
   0  13   8   39.41    3.27
   0  13   8   38.64    5.99
   0  13   8   34.00    3.62
   0  13  -9  335.80   14.61
   0  13   9  291.94   15.53
   0  13   9  297.89   14.84
   0  13   9  311.24   15.02
   0  13 -10  393.38   16.78
   0  13  10  346.55   17.62
   0  13  10  342.33   17.07
   0  13  10  372.21   17.35
   0  13 -11   43.19    3.22
   0  13  11   40.50    3.64
   0  13  11   37.72    3.43
   0  13  11   39.89    3.50
   0  13 -12   37.84    2.87
   0  13  12   26.30    2.83
   0  13  12   32.99    3.09
   0  13  12   35.11    3.22
   0  13 -13  371.13   15.46
   0  13  13  340.11   16.05
   0  13  13  332.97   16.00
   0  13 -14  217.27    5.61
   0  13  14  202.20    6.62
   0  13  14  209.07    6.75
   0  13 -15    4.85    0.95
   0  13  15    3.44    1.05
   0  13  15    3.57    1.11
   0  13  16   20.56    2.18
   0  13 -16   22.60    1.89
   0  13 -17   88.67    4.61
   0  13 -18   78.16    3.72
   0 -13  18   64.00    3.67
   0  14   0  436.90   26.45
   0  14   0  476.34   21.16
   0  14  -1   82.20    8.80
   0  14   1   90.89    5.63
   0  14  -1   90.61    5.54
   0  14   1   88.58    9.14
   0  14  -2   42.43    3.37
   0  14   2   46.21    6.47
   0  14   2   44.12    3.53
   0  14   3  141.18   12.53
   0  14   3  145.89    8.30
   0  14  -3  162.40    8.25
   0  14   4  102.36    6.16
   0  14   4   88.82    9.62
   0  14  -4   99.84    5.87
   0  14   5   15.06    1.98
   0  14   5   19.16    4.14
   0  14   5   12.24    1.56
   0  14  -5   18.50    1.99
   0  14   6   26.15    2.64
   0  14   6   29.03    2.48
   0  14  -6   25.71    2.44
   0  14   7  391.66   18.17
   0  14   7  359.27   23.61
   0  14   7  367.00   17.76
   0  14  -7  428.00   17.93
   0  14   8   18.59    2.14
   0  14   8   20.17    2.33
   0  14   8   20.55    2.74
   0  14  -8   23.03    2.23
   0  14   9   42.54    4.03
   0  14   9   44.46    3.55
   0  14  -9   50.75    3.51
   0  14  10  380.20   18.80
   0  14  10  389.54   18.26
   0  14 -10  412.08   17.89
   0  14  11  220.34   11.90
   0  14  11  231.80   11.69
   0  14 -11  246.18   11.27
   0  14  12    8.30    1.44
   0  14 -12    8.26    1.31
   0  14  12   11.34    1.68
   0  14  13    1.85    0.86
   0  14 -13    1.97    0.78
   0  14  13    0.50    0.29
   0  14  14   17.43    2.07
   0  14 -14   22.00    1.93
   0  14 -15  103.97    5.40
   0  14 -16  111.29    5.51
   0  14 -17  149.77    6.87
   0  14  18    0.22    0.35
   0  14 -18    0.43    0.26
   0  15   0    1.15    1.15
   0  15   0    1.18    0.78
   0  15  -1   48.10    3.62
   0  15   1   51.95    6.88
   0  15   1   43.18    3.53
   0  15   2   97.50   10.20
   0  15   2  114.72    6.70
   0  15  -2   98.54    9.76
   0  15  -2  115.12    6.53
   0  15  -3    6.82    2.20
   0  15   3    5.55    2.48
   0  15  -3    6.01    1.31
   0  15   3    6.81    1.39
   0  15   4   37.96    3.35
   0  15   4   33.80    5.73
   0  15  -4   42.71    3.29
   0  15   5  355.15   16.29
   0  15  -5  344.22   15.85
   0  15   6   79.37    9.02
   0  15   6   89.89    5.58
   0  15   6   75.87    4.80
   0  15  -6   94.06    5.32
   0  15   7  284.10   13.67
   0  15  -7  315.87   13.45
   0  15   8  144.00    9.13
   0  15  -8  172.95    8.30
   0  15   8  152.36    8.13
   0  15   9   62.33    4.96
   0  15  -9   70.32    4.31
   0  15   9   64.04    4.31
   0  15  10   10.13    1.76
   0  15 -10   11.69    1.52
   0  15  10   14.85    1.76
   0  15 -11   46.94    3.10
   0  15  11   41.20    3.21
   0  15  12    5.13    1.07
   0  15 -12    5.44    0.98
   0  15  13   24.50    2.34
   0  15 -13   27.25    2.14
   0  15 -14    5.72    0.92
   0  15 -15   66.22    3.63
   0  15 -16   70.49    3.61
   0  15  17   90.53    4.41
   0  15 -17   81.05    3.93
   0 -15  17   82.80    4.10
   0  16   0  686.26   40.01
   0  16   0  858.89   35.31
   0  16   1  424.82   18.86
   0  16  -1  338.26   22.82
   0  16  -1  439.90   18.80
   0  16   1  326.20   23.02
   0  16   2   29.64    2.82
   0  16  -2   21.74    4.02
   0  16   2   24.28    4.56
   0  16  -2   27.77    2.64
   0  16  -3   43.14    5.72
   0  16   3   52.23    3.97
   0  16   3   48.87    6.78
   0  16  -3   53.58    3.82
   0  16   4    1.83    1.22
   0  16  -4    1.42    0.76
   0  16   4    1.39    0.91
   0  16   5  209.04   10.90
   0  16  -5  221.31   10.67
   0  16  -6  162.19    8.35
   0  16   6  161.93    8.71
   0  16   7   33.56    3.51
   0  16  -7   40.16    2.94
   0  16   7   38.89    3.14
   0  16   8    5.66    0.96
   0  16   8    4.27    1.25
   0  16  -8    6.21    1.16
   0  16   9   46.94    4.03
   0  16   9   51.44    3.49
   0  16  10    1.64    0.63
   0  16 -10    0.19    0.52
   0  16  10    0.59    0.61
   0  16  11    1.01    0.56
   0  16 -11    1.06    0.61
   0  16  11    0.24    0.19
   0  16 -12  107.74    5.58
   0  16 -13   14.94    1.42
   0  16 -14   65.95    3.54
   0  16  15    1.86    0.52
   0  16 -15    2.31    0.48
   0 -16  16    0.09    0.26
   0  17   0   -0.14    0.73
   0  17   1   30.92    2.79
   0  17  -1   29.33    2.70
   0  17  -2   69.31    4.47
   0  17   2   63.78    4.47
   0  17  -3   27.50    2.50
   0  17   3   25.50    2.55
   0  17  -4  113.98    6.34
   0  17   4  114.54    6.60
   0  17  -5    2.05    0.80
   0  17   5    3.31    1.02
   0  17   6  207.08   10.28
   0  17  -6  207.34    9.94
   0  17   6  195.08   11.05
   0  17  -7  108.84    5.84
   0  17   7  102.94    6.69
   0  17  -8   40.68    2.82
   0  17   8   32.00    3.10
   0  17  -9   29.74    2.00
   0  17   9    3.47    0.91
   0  17 -10   16.90    1.61
   0  17 -11    1.68    0.59
   0  17 -12    2.16    0.58
   0  17 -13  158.37    7.23
   0  17 -14   12.95    1.06
   0  18   0    1.10    0.68
   0  18  -1    2.50    0.91
   0  18   1    3.70    1.03
   0  18   2  352.27   15.85
   0  18  -2  337.23   15.64
   0  18   3   16.74    1.85
   0  18  -3   14.60    1.70
   0  18   4    3.24    0.93
   0  18  -4    2.39    0.84
   0  18  -5   69.91    4.10
   0  18   5   68.45    4.29
   0  18   5   56.61    4.64
   0  18  -6  166.90    7.84
   0  18   6  142.85    8.46
   0  18  -7  100.15    5.22
   0  18   7   91.60    5.72
   0  18  -8   47.42    2.33
   0  18   8    0.34    0.23
   0  18  -9    0.64    0.47
   0  18 -10   22.32    1.71
   0  18 -11    1.20    0.43
   0  18 -12  177.99    7.89
   0 -18  13    0.93    0.39
   0  19   0   -0.29    0.54
   0  19  -1   94.23    5.23
   0  19   1   95.40    5.27
   0  19  -2    1.12    0.55
   0  19   2    0.69    0.58
   0  19  -3    4.57    0.86
   0  19   3    3.30    0.83
   0  19   4   22.23    2.40
   0  19  -4   26.73    2.08
   0  19   4   25.14    2.13
   0  19  -5   19.85    1.72
   0 -19   5   18.00    1.62
   0  19  -6  111.40    3.40
   0 -19   6   99.09    3.33
   0  19  -7  127.48    5.93
   0 -19   7  112.02    5.94
   0  19  -8    3.49    0.65
   0  19  -9   65.96    3.48
   0 -19   9   68.10    3.72
   0  19 -10    0.79    0.33
   0 -19  10    0.48    0.34
   0  20   0  167.12    7.86
   0  20  -1   71.49    3.87
   0  20   1   67.50    3.83
   0  20  -2   50.57    2.83
   0  20   2   45.35    2.78
   0  20   3    0.09    0.35
   0  20  -3    0.46    0.43
   0  20   4    0.16    0.13
   0  20  -4    8.32    0.91
   0  20  -5  225.78   10.01
   0  20  -6  199.72    8.87
   0  20  -7   53.08    2.82
   0  20  -8   46.96    2.48
   0  21   0    0.36    0.31
   0  21  -1  133.06    6.06
   0  21  -2   31.15    1.87
   0  21  -3   21.08    1.40
   0  21  -4   16.55    1.16
  -1   0  24   23.67    2.07
  -1   0  23    1.23    0.77
  -1   0  23    0.12    0.58
  -1   0  22    3.28    1.18
  -1   0  22    2.72    0.93
  -1   0  21    1.85    1.14
  -1   0  21    1.08    0.93
  -1   0  21    0.62    0.51
  -1   0  20    6.90    1.81
  -1   0  20    8.57    1.85
  -1   0  20    8.23    1.33
  -1   0  20    9.17    1.70
  -1   0  19    2.22    1.09
  -1   0  19   -0.49    1.02
  -1   0  19    0.75    0.59
  -1   0  19    0.87    1.10
  -1   0  19   -0.48    1.25
  -1   0  18  244.62   16.38
  -1   0  18  252.30   12.12
  -1   0  18  251.49   13.25
  -1   0  17    0.25    0.58
  -1   0  17    0.82    0.78
  -1   0  17    0.48    1.10
  -1   0  16  462.43   25.00
  -1   0  16  450.90   20.20
  -1   0  16  454.23   21.36
  -1   0  15    4.48    1.25
  -1   0  15    1.69    1.30
  -1   0  14   35.29    4.61
  -1   0  14   28.94    3.64
  -1   0  14   36.93    3.24
  -1   0  13    0.85    0.85
  -1   0  13    0.70    1.06
  -1   0  13   -0.53    0.87
  -1   0  13    0.59    0.56
  -1   0  12    4.96    1.87
  -1   0  12    5.89    1.76
  -1   0  12    2.45    0.99
  -1   0  11    0.27    0.78
  -1   0  11    0.34    0.95
  -1   0  11    0.45    0.63
  -1   0  11    0.24    0.48
  -1   0  10  591.11   26.51
  -1   0  10  580.26   25.81
  -1   0  10  511.41   25.95
  -1   0   9    0.70    0.66
  -1   0   9    1.97    0.88
  -1   0   8 1449.37   59.88
  -1   0   8 1353.33   60.87
  -1   0   7    1.81    0.91
  -1   0   6   26.00    2.89
  -1   0   5   -0.91    0.75
  -1   0   4  367.32   16.65
  -1   0   3    0.36    0.43
  -1   0   2 2622.12  105.83
   1   0  -1    0.46    0.35
   1   0   0  490.44   20.81
   1   0   1    0.77    0.42
   1   0   1    0.69    0.26
   1   0   2   76.29    3.94
   1   0   3    0.15    0.31
   1   0   4   32.91    2.52
   1   0   5    0.24    0.49
   1   0   6  208.12   10.62
   1   0   7    0.17    0.45
   1   0   8   52.96    4.37
   1   0   8   47.91    2.75
   1   0   9    0.93    0.94
   1   0   9    1.20    0.43
   1   0  10 1893.46   75.03
   1   0  10 1712.75   71.47
   1   0  11    0.60    0.78
   1   0  11    1.54    0.57
   1   0  12    4.43    1.67
   1   0  12    1.55    0.58
   1   0  13    0.10    0.45
   1   0  13    0.86    0.64
   1   0  13    0.38    1.16
   1   0  14  297.98   14.94
   1   0  14  294.46   15.42
   1   0  14  306.26   15.81
   1   0  14  328.90   14.39
   1   0  14  344.73   18.92
   1   0  15    0.51    0.68
   1   0  15    0.63    0.80
   1   0  15    1.40    1.27
   1   0  15    1.65    0.71
   1   0  15    0.45    1.04
   1   0  16   12.13    1.86
   1   0  16   10.90    1.61
   1   0  16    8.06    1.79
   1   0  16    8.12    1.95
   1   0  16    9.97    1.47
   1   0  16    9.91    2.64
   1   0  17    1.04    0.78
   1   0  17    0.76    0.92
   1   0  17   -0.44    0.92
   1   0  17    0.72    0.66
   1   0  17    0.75    0.67
   1   0  17    0.48    0.97
   1   0  18  463.66   22.05
   1   0  18  440.89   21.47
   1   0  18  449.94   20.09
   1   0  18  435.40   24.83
   1   0  19    0.70    0.89
   1   0  19    0.61    1.05
   1   0  20  283.55   14.63
   1   0  20  282.74   14.20
   1   0  21    0.18    1.05
   1   0  21    0.46    0.73
   1   0  22   23.90    2.52
   1   0  23    0.74    0.66
  -1  -1  24    1.31    0.59
  -1  -1  23  143.09    7.87
  -1  -1  23  152.59    7.76
  -1  -1  22   21.99    2.57
  -1  -1  22   26.77    2.64
  -1  -1  21   71.86    5.33
  -1  -1  21   69.52    4.96
  -1   1  21   65.69    4.66
  -1   1  21   64.94    4.12
  -1  -1  20  184.18   10.71
  -1  -1  20  189.18   10.45
  -1  -1  20  195.36   10.37
  -1   1  20  184.45   10.16
  -1   1  20  180.56    9.26
  -1  -1  19  167.30    9.87
  -1  -1  19  152.72    9.36
  -1   1  19  164.95    8.34
  -1  -1  19  154.79    9.29
  -1   1  19  150.39    9.10
  -1   1  18  120.29   10.56
  -1   1  18  135.66    7.25
  -1  -1  18  132.66    8.27
  -1   1  18  129.84    8.10
  -1   1  17   68.22    7.28
  -1   1  17   62.12    5.02
  -1  -1  17   66.98    5.27
  -1   1  17   68.27    4.41
  -1   1  16    7.57    1.61
  -1  -1  16    4.20    1.33
  -1   1  16    4.60    0.96
  -1   1  16    6.63    1.18
  -1   1  16    5.53    2.00
  -1   1  15   57.67    6.29
  -1   1  15   50.91    3.55
  -1   1  15   56.49    4.35
  -1  -1  15   56.16    4.44
  -1   1  14    1.77    0.81
  -1  -1  14    1.00    0.82
  -1   1  14    0.92    0.55
  -1   1  14    0.39    0.91
  -1  -1  14    0.75    0.65
  -1   1  14    0.95    0.97
  -1  -1  13   60.44    4.29
  -1   1  13   56.20    4.15
  -1  -1  13   65.93    6.66
  -1   1  13   58.35    5.85
  -1   1  13   60.07    3.65
  -1  -1  13   48.96    4.65
  -1   1  13   58.16    5.45
  -1  -1  12  114.83    7.52
  -1   1  12  118.04    8.16
  -1  -1  12  117.85    9.09
  -1  -1  12  105.83    8.23
  -1   1  12  130.20    8.90
  -1  -1  11   12.78    2.02
  -1   1  11   17.08    2.55
  -1  -1  11   16.45    2.83
  -1   1  11   14.49    2.46
  -1  -1  11   18.15    2.99
  -1  -1  10    4.35    1.12
  -1   1  10    2.47    1.11
  -1   1  10    5.43    1.18
  -1  -1  10    5.18    1.58
  -1   1  10    4.71    1.38
  -1  -1  10    3.97    1.47
  -1   1   9   21.63    3.37
  -1  -1   9   20.68    3.03
  -1   1   9   17.48    2.23
  -1  -1   9   24.93    3.07
  -1   1   9   20.50    2.98
  -1   1   9   22.63    2.69
  -1   1   9   25.36    2.95
  -1   1   8   60.20    4.99
  -1  -1   8   56.97    4.82
  -1   1   8   64.41    4.90
  -1   1   8   66.75    5.72
  -1   1   7   39.72    3.98
  -1   1   7   38.24    3.54
  -1   1   6 1014.19   45.26
  -1   1   6 1072.08   44.74
  -1  -1   5  178.58    9.71
  -1   1   5  208.13    9.85
  -1  -1   4  113.18    6.12
  -1   1   4  115.58    6.56
  -1   1   4  114.24    5.80
  -1   1   3    5.66    0.81
  -1  -1   3    5.57    0.83
  -1  -1   2   48.53    2.58
   1  -1  -1 2868.34  116.37
   1  -1   0   26.35    1.86
   1  -1   1  335.39   14.87
   1  -1   1  345.32   15.18
   1   1   2    3.16    0.53
   1   1   2    3.39    0.60
   1   1   3  881.68   37.70
   1   1   3  942.30   37.89
   1   1   4  166.01    8.18
   1   1   5 9999.00  403.96
   1   1   6   66.18    4.59
   1   1   7  132.28    7.76
   1   1   8   26.34    2.92
   1   1   8   20.63    1.54
   1   1   9   65.84    5.28
   1   1   9   59.72    3.36
   1   1  10   45.77    4.56
   1   1  10   46.77    2.87
   1   1  11    4.90    1.62
   1   1  11    2.05    0.59
   1  -1  12   26.46    2.52
   1   1  12   25.73    2.17
   1   1  12   27.29    3.86
   1   1  12   29.55    2.35
   1   1  13   57.43    4.13
   1  -1  13   59.24    4.30
   1   1  13   61.14    3.94
   1   1  13   58.11    3.75
   1   1  13   68.35    6.52
   1  -1  14   63.77    4.83
   1   1  14   64.25    4.72
   1  -1  14   76.58    4.67
   1  -1  14   74.41    5.34
   1  -1  14   70.47    5.44
   1   1  14   79.88    4.54
   1   1  14   63.59    6.82
   1   1  15    1.97    0.90
   1  -1  15    2.98    1.02
   1  -1  15    4.37    1.51
   1  -1  15    2.86    1.16
   1   1  15    3.59    0.95
   1   1  15    2.74    1.59
   1  -1  16   92.52    6.23
   1   1  16   86.66    6.01
   1  -1  16  100.81    7.05
   1  -1  16  105.55    6.88
   1   1  16  100.45    5.73
   1   1  16   92.40    8.79
   1  -1  17   32.72    3.19
   1   1  17   30.01    3.05
   1  -1  17   32.73    3.76
   1   1  17   35.04    3.08
   1  -1  17   34.88    3.60
   1   1  17   33.28    2.81
   1   1  17   26.07    4.55
   1   1  18  246.48   13.14
   1  -1  18  279.12   14.59
   1   1  18  273.30   13.16
   1  -1  18  279.89   14.21
   1   1  18  282.77   12.97
   1   1  18  258.83   17.20
   1  -1  19    0.23    1.08
   1   1  19    1.03    0.65
   1  -1  19    0.60    0.95
   1  -1  20    2.89    1.20
   1  -1  20    3.38    1.17
   1  -1  21   21.59    2.61
   1  -1  21   18.14    2.21
   1  -1  22    6.68    1.35
   1  -1  23   28.33    2.37
  -1  -2  24    8.89    1.19
  -1   2  24   11.93    1.40
  -1   2  23   14.02    1.81
  -1  -2  23   14.61    1.77
  -1  -2  23   13.67    1.62
  -1   2  23   13.53    1.69
  -1   2  22    7.60    1.63
  -1  -2  22    8.00    1.60
  -1   2  22    7.42    1.47
  -1  -2  22    8.69    1.48
  -1   2  21   23.94    2.91
  -1  -2  21   21.70    2.73
  -1  -2  21   27.29    2.82
  -1   2  21   29.95    3.03
  -1   2  21   22.24    2.49
  -1  -2  21   24.96    2.15
  -1   2  21   25.79    2.23
  -1   2  20   20.28    2.91
  -1  -2  20   20.24    2.74
  -1   2  20   18.98    2.66
  -1  -2  20   20.04    2.59
  -1   2  20   17.24    2.33
  -1  -2  20   21.89    2.05
  -1   2  20   18.82    1.98
  -1   2  19  169.05   10.51
  -1  -2  19  199.18   10.83
  -1   2  19  184.44   10.43
  -1  -2  19  169.92   10.07
  -1  -2  19  173.92    8.93
  -1   2  19  184.79    9.12
  -1  -2  19  177.28   10.15
  -1   2  19  167.39    9.81
  -1   2  18   95.40    5.46
  -1  -2  18   84.96    5.21
  -1   2  18   85.22    6.03
  -1  -2  18   90.08    6.33
  -1   2  18   77.49    8.21
  -1  -2  18   85.90    8.31
  -1   2  17   28.01    2.55
  -1  -2  17   29.44    4.56
  -1   2  17   28.88    4.60
  -1  -2  17   27.55    3.24
  -1   2  17   34.40    3.37
  -1  -2  17   28.92    2.55
  -1   2  17   28.46    2.62
  -1  -2  16    2.27    1.07
  -1   2  16    1.68    0.87
  -1   2  16    2.96    0.86
  -1  -2  16    1.32    1.24
  -1   2  16    0.93    1.32
  -1  -2  16    3.62    0.94
  -1   2  16    2.24    0.78
  -1   2  15  238.07   12.41
  -1  -2  15  232.51   12.56
  -1   2  15  243.48   15.62
  -1  -2  15  224.79   15.02
  -1   2  15  242.93   11.63
  -1   2  15  257.10   11.70
  -1  -2  15  246.43   11.55
  -1   2  14  465.12   21.76
  -1  -2  14  475.37   22.04
  -1   2  14  426.97   24.05
  -1  -2  14  507.52   25.18
  -1   2  14  505.23   25.50
  -1  -2  14  473.16   25.64
  -1   2  14  495.16   21.11
  -1   2  13   85.25    5.31
  -1  -2  13   77.99    5.32
  -1  -2  13   75.02    7.14
  -1  -2  13   77.43    5.71
  -1   2  13   75.60    6.70
  -1  -2  13   95.77    7.50
  -1   2  13   84.86    7.34
  -1  -2  13   84.05    7.64
  -1   2  13   82.65    4.74
  -1  -2  12  421.94   23.75
  -1  -2  12  490.99   24.06
  -1  -2  12  417.38   21.13
  -1   2  12  453.34   22.91
  -1   2  12  524.03   23.81
  -1  -2  12  486.70   23.26
  -1  -2  12  454.21   20.61
  -1  -2  11  197.67   12.62
  -1   2  11  213.03   12.38
  -1  -2  11  200.10   10.99
  -1  -2  11  192.35   13.20
  -1   2  11  235.52   13.71
  -1   2  11  228.04   12.70
  -1  -2  11  228.69   12.50
  -1   2  10  690.46   33.32
  -1  -2  10  614.59   32.18
  -1  -2  10  635.53   29.48
  -1   2  10  638.83   30.77
  -1  -2  10  668.93   31.37
  -1   2  10  731.08   32.24
  -1  -2  10  692.99   30.85
  -1   2  10  738.34   31.35
  -1  -2   9  144.56   10.62
  -1   2   9  138.79    7.63
  -1  -2   9  194.98   10.50
  -1   2   9  211.95   11.13
  -1   2   9  170.04    9.85
  -1   2   9  191.44   11.67
  -1  -2   9  195.64   10.11
  -1   2   9  201.01   10.31
  -1   2   8  307.12   15.95
  -1   2   8  332.47   16.60
  -1   2   8  311.47   17.32
  -1   2   8  350.47   16.33
  -1  -2   8  325.07   15.96
  -1   2   7  606.09   26.52
  -1   2   7  548.30   27.16
  -1   2   6  131.10    7.38
  -1   2   6  123.24    6.98
  -1   2   6  119.67    7.86
  -1   2   5   -0.36    0.53
  -1   2   5    1.16    0.73
  -1   2   4  636.15   26.51
  -1   2   4  598.18   26.38
  -1   2   3    4.72    0.77
  -1   2   2   34.42    2.11
   1  -2  -1   25.86    1.86
   1   2  -1   27.01    1.96
  -1   2   1   25.57    1.48
   1   2   0  576.83   26.57
   1  -2   0  634.35   26.57
   1   2   0  620.61   26.00
   1   2   1   43.51    2.86
   1  -2   1   47.56    2.87
   1  -2   1   45.80    2.42
   1   2   1   39.87    2.91
   1  -2   1   44.95    3.08
   1   2   1   49.24    2.76
   1   2   1   48.18    2.72
   1   2   2    8.89    0.91
   1  -2   2    7.75    0.88
   1   2   2    8.40    1.15
   1  -2   2    8.40    0.86
   1   2   2    6.68    0.79
   1   2   3  128.14    6.81
   1  -2   3  114.91    7.06
   1   2   3  122.20    6.05
   1  -2   3  118.39    6.03
   1  -2   3  122.05    5.82
   1  -2   4    3.23    0.75
   1  -2   4    3.56    0.74
   1   2   4    5.91    0.96
   1  -2   4    3.34    1.18
   1   2   4    2.93    1.02
   1  -2   5  676.59   33.00
   1   2   5  776.83   31.99
   1  -2   5  748.51   31.93
   1  -2   5  750.39   31.77
   1  -2   6   49.18    4.62
   1  -2   6   61.53    4.25
   1  -2   6   57.14    4.05
   1   2   6   57.15    4.14
   1  -2   7  172.32    9.49
   1   2   7  176.25    9.58
   1  -2   8  493.42   21.99
   1   2   8  496.46   22.03
   1   2   8  469.65   19.53
   1  -2   8  441.06   19.46
   1   2   9  395.01   19.05
   1  -2   9  386.60   18.90
   1  -2   9  379.08   16.34
   1   2   9  377.49   16.35
   1  -2  10    0.79    0.86
   1   2  10    2.99    1.22
   1   2  10    3.08    0.63
   1  -2  10    1.27    0.48
   1   2  11    0.62    0.88
   1  -2  11    1.78    0.97
   1   2  11    2.66    0.68
   1  -2  11    1.27    0.50
   1   2  12  758.73   34.92
   1  -2  12  777.59   34.76
   1   2  12  755.00   30.82
   1  -2  12  723.17   30.70
   1  -2  12  698.05   31.50
   1   2  12  698.88   30.94
   1   2  13  196.89   12.74
   1  -2  13  202.23   12.64
   1   2  13  183.07    9.27
   1  -2  13  188.98    9.02
   1   2  13  192.81    9.12
   1  -2  13  176.31    9.77
   1   2  13  175.82    9.43
   1   2  14   20.66    3.65
   1  -2  14   16.27    3.15
   1   2  14   18.11    2.60
   1  -2  14   13.90    2.22
   1  -2  14   17.12    2.28
   1   2  14   14.16    2.19
   1   2  14   18.96    2.03
   1  -2  14   14.66    1.68
   1   2  14   19.11    1.89
   1   2  14   16.40    2.05
   1  -2  14   17.06    2.19
   1  -2  15   13.89    3.06
   1   2  15   19.35    3.76
   1  -2  15   21.72    2.68
   1   2  15   17.75    2.63
   1  -2  15   23.49    2.94
   1   2  15   21.40    2.91
   1   2  15   22.74    2.15
   1  -2  15   17.31    1.89
   1  -2  15   17.14    2.32
   1   2  15   14.25    2.02
   1   2  16    2.14    0.88
   1  -2  16    0.74    0.84
   1   2  16    2.28    1.37
   1  -2  16    2.37    1.16
   1  -2  16    4.54    1.82
   1   2  16    3.38    1.68
   1   2  16    2.01    0.79
   1  -2  16    2.72    0.88
   1  -2  16    1.88    1.03
   1   2  16    3.12    1.24
   1   2  17  385.87   19.10
   1  -2  17  395.95   19.00
   1  -2  17  387.94   19.37
   1   2  17  379.15   19.50
   1  -2  17  385.99   22.32
   1   2  17  386.87   22.65
   1   2  17  352.44   18.04
   1  -2  17  407.41   17.69
   1   2  17  407.58   17.80
   1   2  18  232.96   12.44
   1  -2  18  273.50   13.57
   1   2  18  265.87   12.73
   1   2  18  253.74   13.56
   1  -2  18  272.08   13.98
   1   2  18  242.14   13.85
   1   2  19   10.52    1.97
   1   2  19    9.33    1.51
   1  -2  19   12.92    2.11
   1   2  19    9.69    2.07
   1  -2  19   13.89    2.32
   1   2  20  243.98   12.43
   1  -2  20  257.00   12.37
   1   2  20  244.91   11.41
   1   2  20  213.02   11.27
   1  -2  20  262.29   12.87
   1   2  20  229.73   12.71
   1   2  21   21.83    2.47
   1  -2  21   26.31    2.56
   1   2  21   23.11    2.73
   1  -2  21   21.18    2.61
   1   2  22    4.95    1.12
   1  -2  22    5.79    1.18
   1   2  23    1.12    0.61
   1  -2  23    0.93    0.53
  -1   3  24    0.77    0.48
  -1  -3  24    0.44    0.38
  -1  -3  23  191.53    8.93
  -1   3  23  173.28    8.98
  -1   3  23  180.34    9.31
  -1  -3  23  184.44    9.12
  -1  -3  22   57.65    3.85
  -1   3  22   50.58    3.83
  -1   3  22   51.01    4.05
  -1  -3  22   50.42    3.85
  -1   3  22   42.84    3.41
  -1   3  21  153.84    8.76
  -1  -3  21  164.85    8.68
  -1   3  21  163.46    9.24
  -1  -3  21  167.27    9.01
  -1   3  21  143.23    8.15
  -1   3  21  151.39    7.75
  -1  -3  21  147.70    7.58
  -1  -3  20   -0.21    1.02
  -1   3  20    0.46    1.03
  -1   3  20    2.44    1.02
  -1  -3  20    0.37    0.79
  -1   3  20    1.17    0.80
  -1   3  20    1.15    0.64
  -1  -3  20    0.73    0.60
  -1   3  19    4.48    1.61
  -1  -3  19    4.27    1.45
  -1   3  19    2.21    1.05
  -1   3  19    3.31    1.38
  -1  -3  19    3.20    1.23
  -1   3  19    3.75    1.01
  -1  -3  19    5.02    1.02
  -1   3  18   19.89    2.10
  -1   3  18   15.04    3.34
  -1  -3  18   14.18    3.15
  -1  -3  18   14.77    2.38
  -1   3  18   16.24    2.25
  -1  -3  18   18.34    1.93
  -1   3  18   15.71    1.87
  -1   3  17    1.72    1.04
  -1  -3  17    2.83    1.26
  -1   3  17    2.81    0.91
  -1  -3  17    3.15    1.47
  -1   3  17    1.97    1.28
  -1   3  17    3.90    0.98
  -1  -3  17    4.98    1.05
  -1  -3  16  484.90   22.02
  -1   3  16  448.47   21.36
  -1   3  16  467.75   25.43
  -1  -3  16  446.71   24.60
  -1   3  16  455.67   20.59
  -1  -3  16  446.51   20.29
  -1   3  16  472.38   20.55
  -1  -3  15  760.74   34.80
  -1   3  15  782.04   34.47
  -1   3  15  827.96   38.80
  -1  -3  15  762.23   37.72
  -1   3  15  785.04   33.70
  -1   3  15  831.57   33.66
  -1  -3  15  762.18   33.36
  -1   3  14   16.38    2.05
  -1  -3  14   12.38    1.99
  -1   3  14    8.84    2.37
  -1  -3  14   14.35    3.05
  -1   3  14   16.67    3.16
  -1  -3  14   13.78    2.74
  -1   3  14   12.27    1.59
  -1  -3  13  366.75   18.11
  -1  -3  13  347.59   21.50
  -1   3  13  396.35   17.97
  -1   3  13  361.39   20.52
  -1  -3  13  389.08   21.23
  -1  -3  13  412.41   20.86
  -1   3  13  432.27   21.51
  -1   3  13  394.70   17.41
  -1  -3  12  311.65   19.36
  -1   3  12  335.22   15.46
  -1  -3  12  353.83   18.59
  -1   3  12  340.29   18.23
  -1  -3  12  289.08   15.51
  -1  -3  12  359.77   18.05
  -1   3  12  387.14   18.75
  -1  -3  12  332.20   15.68
  -1   3  11  160.79   12.14
  -1   3  11  158.45   10.32
  -1  -3  11  148.89    8.45
  -1  -3  11  173.90   10.72
  -1  -3  11  148.19   11.44
  -1   3  11  172.63   10.44
  -1  -3  11  159.55   10.00
  -1   3  10  132.11    9.92
  -1  -3  10  120.21    9.47
  -1  -3  10   93.51    6.13
  -1   3  10  104.81    7.71
  -1  -3  10  125.45    8.18
  -1  -3  10  116.68    7.61
  -1   3  10  119.68    7.84
  -1  -3   9   85.35    7.89
  -1   3   9   97.93    8.12
  -1   3   9   95.92    6.86
  -1  -3   9   89.70    6.68
  -1   3   9  102.22    7.32
  -1   3   9  101.29    6.78
  -1  -3   9   97.90    6.57
  -1   3   8  128.44    9.28
  -1  -3   8  116.04    9.30
  -1   3   8  145.53    8.25
  -1  -3   8  124.49    7.78
  -1   3   8  143.54    8.64
  -1   3   7   24.40    2.79
  -1   3   7   18.26    2.38
  -1   3   7   20.90    3.02
  -1   3   7   24.42    2.59
  -1  -3   7   20.53    2.33
  -1   3   6  289.52   13.91
  -1   3   6  271.30   13.72
  -1   3   6  284.63   14.94
  -1   3   5  352.05   15.81
  -1   3   5  325.28   15.77
  -1   3   4   80.66    4.69
  -1   3   4   77.71    4.86
  -1   3   3 1165.11   48.17
  -1   3   2  149.54    6.90
   1  -3  -1  319.29   13.65
   1   3  -1  307.24   13.78
   1  -3   0   52.54    2.88
   1   3   0   47.37    2.88
   1   3   1  346.60   13.69
   1   3   1  353.37   13.88
   1   3   1  287.97   12.99
   1  -3   1  307.37   12.98
   1   3   1  263.64   13.64
   1  -3   1  319.46   14.02
   1   3   2  217.45    6.05
   1  -3   2  189.61    4.36
   1   3   2  196.19    4.49
   1  -3   2  168.46    4.38
   1   3   2  196.47    4.55
   1  -3   3   98.32    4.94
   1  -3   3   95.17    5.24
   1   3   3  111.03    5.37
   1  -3   4  163.73    9.31
   1  -3   4  134.40    6.92
   1   3   4  151.18    7.30
   1  -3   4  137.53    7.22
   1   3   4  153.67    8.37
   1  -3   5  529.78   24.68
   1   3   5  519.82   22.45
   1  -3   5  487.30   22.38
   1  -3   5  506.38   22.17
   1   3   5  519.71   23.85
   1  -3   6   20.74    3.10
   1  -3   6   20.48    2.30
   1   3   6   25.23    2.49
   1  -3   6   25.49    2.36
   1   3   6   28.37    3.34
   1  -3   7  154.20   10.79
   1  -3   7  169.33    9.48
   1   3   7  186.71    9.71
   1  -3   7  182.56    9.48
   1   3   8   13.75    2.09
   1  -3   8   13.76    2.09
   1  -3   8   10.85    1.05
   1   3   8   12.04    1.09
   1  -3   9   27.29    3.15
   1   3   9   25.54    3.09
   1  -3   9   23.75    1.72
   1   3   9   21.14    1.67
   1   3  10  287.02   15.36
   1  -3  10  294.84   15.32
   1   3  10  266.69   12.44
   1  -3  10  290.52   12.49
   1  -3  11 1452.54   58.84
   1   3  11 1438.38   58.88
   1  -3  11 1456.43   62.41
   1   3  11 1509.75   62.88
   1   3  11 1361.23   59.14
   1  -3  12    7.91    1.44
   1   3  12    7.92    1.25
   1   3  12    8.25    1.24
   1  -3  12    8.33    1.11
   1   3  12    7.32    1.10
   1   3  12    6.04    1.86
   1  -3  12   11.29    2.38
   1  -3  13  167.22   11.17
   1   3  13  157.58   11.24
   1  -3  13  167.16    9.20
   1   3  13  141.06    8.94
   1   3  13  149.99    8.10
   1   3  13  150.46    8.86
   1  -3  13  154.09    8.75
   1   3  13  169.68    7.98
   1  -3  13  159.94    7.79
   1   3  13  147.18    8.19
   1  -3  13  154.81    8.69
   1   3  14  333.90   20.04
   1  -3  14  359.04   19.98
   1   3  14  323.08   17.38
   1  -3  14  354.81   17.40
   1  -3  14  345.58   17.04
   1   3  14  368.67   16.44
   1   3  14  337.01   17.20
   1  -3  14  358.88   15.91
   1   3  14  357.76   16.04
   1   3  14  340.52   16.42
   1  -3  14  381.33   17.18
   1   3  15   60.07    6.58
   1  -3  15   59.60    6.35
   1  -3  15   53.41    4.68
   1   3  15   47.56    4.60
   1   3  15   53.18    4.58
   1  -3  15   52.20    4.40
   1   3  15   52.43    3.92
   1   3  15   53.83    3.75
   1  -3  15   55.52    3.67
   1   3  15   49.67    3.95
   1  -3  16   11.56    2.85
   1   3  16    7.29    2.42
   1   3  16   11.60    2.09
   1  -3  16    9.76    1.87
   1   3  16   11.67    2.31
   1  -3  16   12.01    2.15
   1   3  16   10.50    1.53
   1  -3  16   12.83    1.59
   1   3  16   12.20    1.79
   1   3  17    1.09    0.72
   1   3  17    1.28    1.33
   1  -3  17    0.46    1.14
   1  -3  17    1.36    1.39
   1   3  17    1.49    1.29
   1   3  17    0.77    0.67
   1  -3  17    0.12    0.58
   1  -3  17    1.84    1.06
   1   3  17    1.57    1.22
   1   3  18    2.50    1.42
   1  -3  18    4.75    1.53
   1   3  18    3.72    1.25
   1   3  18    4.68    1.23
   1  -3  18    3.97    1.34
   1   3  19   30.43    3.51
   1  -3  19   31.48    3.41
   1   3  19   27.36    2.79
   1   3  19   29.77    2.80
   1   3  19   31.90    3.35
   1  -3  19   32.90    3.25
   1   3  20   76.02    5.73
   1  -3  20   73.59    5.38
   1   3  20   74.25    4.71
   1   3  20   73.16    5.31
   1  -3  20   82.56    5.34
   1   3  20   74.21    4.69
   1   3  21    1.42    1.00
   1  -3  21    0.16    0.76
   1   3  21    0.35    0.46
   1   3  22   -0.14    0.76
   1  -3  22    0.62    0.67
   1   3  23  129.12    6.72
   1  -3  23  135.92    6.60
   1   4 -24    8.54    0.83
  -1   4  23   20.72    2.08
  -1  -4  23   24.14    2.07
  -1   4  23   17.00    1.79
  -1  -4  22  180.94    8.78
  -1   4  22  153.81    8.79
  -1   4  22  151.87    8.28
  -1  -4  22  174.76    8.45
  -1   4  22  153.72    8.50
  -1   4  21  300.37   13.68
  -1  -4  21  329.87   14.59
  -1   4  21  296.31   14.71
  -1   4  21  266.93   13.91
  -1   4  21  286.26   14.93
  -1  -4  21  341.48   15.02
  -1  -4  20    4.28    1.35
  -1   4  20    3.57    1.37
  -1  -4  20    3.41    1.16
  -1   4  20    1.77    1.05
  -1  -4  20    4.52    0.89
  -1   4  20    3.24    0.88
  -1   4  20    4.90    1.22
  -1  -4  19   20.70    2.69
  -1   4  19   17.29    2.68
  -1  -4  19   22.66    2.67
  -1   4  19   19.88    2.76
  -1  -4  19   21.39    2.05
  -1   4  19   22.87    2.18
  -1   4  19   19.53    2.46
  -1   4  18   39.46    3.81
  -1  -4  18   51.94    4.53
  -1   4  18   53.73    4.81
  -1  -4  18   51.41    3.49
  -1   4  18   50.17    3.59
  -1  -4  18   48.57    4.24
  -1   4  18   48.67    3.66
  -1   4  18   49.73    4.48
  -1  -4  18   42.01    5.49
  -1   4  18   47.99    6.14
  -1   4  17   19.41    2.20
  -1   4  17   17.91    2.03
  -1  -4  17   25.21    2.25
  -1  -4  17   26.07    3.14
  -1   4  17   25.77    2.84
  -1  -4  17   17.52    3.43
  -1   4  17   19.68    3.82
  -1   4  16   20.22    2.28
  -1  -4  16   25.46    2.28
  -1   4  16   24.14    2.30
  -1  -4  16   29.46    3.26
  -1   4  16   24.04    2.73
  -1  -4  16   23.16    3.86
  -1   4  16   26.00    4.30
  -1   4  15  345.24   16.52
  -1  -4  15  342.64   19.90
  -1   4  15  375.48   20.90
  -1   4  15  375.26   16.39
  -1  -4  15  366.45   16.18
  -1   4  15  334.60   17.04
  -1  -4  15  369.06   17.74
  -1   4  14  109.17    6.16
  -1   4  14  106.11    6.51
  -1  -4  14   95.25    9.30
  -1  -4  14  104.83    6.82
  -1  -4  14   95.49    8.57
  -1  -4  14  101.29    8.40
  -1   4  14  101.31    8.72
  -1  -4  14  110.45    5.78
  -1   4  14  109.15    5.92
  -1   4  13   88.73    5.22
  -1  -4  13   76.50    8.33
  -1   4  13   85.32    5.51
  -1   4  13   88.82    7.79
  -1  -4  13   91.74    7.77
  -1  -4  13   78.59    7.04
  -1   4  13   97.54    7.89
  -1  -4  13   89.48    5.86
  -1  -4  12  293.54   15.02
  -1   4  12  337.11   20.51
  -1  -4  12  331.69   17.78
  -1   4  12  298.52   17.61
  -1  -4  12  308.39   19.62
  -1   4  12  314.66   14.90
  -1  -4  12  330.77   17.29
  -1   4  12  364.25   18.10
  -1   4  11  121.75   10.14
  -1  -4  11  100.53    9.34
  -1  -4  11  101.27    7.31
  -1   4  11  120.06    8.04
  -1  -4  11   89.53    5.59
  -1   4  11  104.88    7.97
  -1  -4  11  105.50    7.76
  -1  -4  10  589.22   30.42
  -1   4  10  663.13   27.80
  -1  -4  10  598.27   27.06
  -1   4  10  610.00   28.08
  -1  -4  10  604.11   27.64
  -1  -4  10  520.41   24.92
  -1  -4   9   13.00    3.03
  -1  -4   9   15.28    2.36
  -1  -4   9   13.51    2.07
  -1   4   9   13.69    2.18
  -1   4   8  675.42   30.05
  -1  -4   8  633.94   32.42
  -1   4   8  697.43   29.61
  -1  -4   8  610.84   28.99
  -1   4   7  849.22   36.92
  -1   4   7  916.32   36.54
  -1  -4   7  772.06   35.87
  -1   4   7  811.25   36.76
  -1   4   6  121.55    7.37
  -1   4   6  124.42    6.99
  -1   4   6  115.93    7.35
  -1   4   5 1698.62   71.94
  -1   4   5 1743.51   71.87
  -1   4   4   53.77    3.98
  -1   4   4   49.82    3.69
  -1   4   3   65.49    4.16
   1  -4  -2    8.63    1.09
   1   4  -2    7.80    1.14
  -1   4   2    8.03    1.12
  -1   4   1    1.02    0.45
   1   4  -1    0.13    0.33
   1  -4  -1    0.45    0.34
   1  -4   0  341.11   14.85
  -1   4   0  337.81   12.69
   1  -4   1   53.36    3.33
   1   4   1   46.37    3.07
   1   4   1   53.14    3.25
   1   4   1   55.25    3.45
  -1   4  -1   43.56    2.39
   1   4   1   44.57    2.44
   1  -4   1   47.67    2.43
   1  -4   2  545.21   23.87
   1  -4   2  689.74   25.92
   1   4   2  582.36   25.49
   1   4   2  762.39   26.15
   1   4   2  733.05   26.06
   1  -4   3  951.05   38.37
   1   4   3 1048.93   40.43
   1   4   3  982.32   38.89
  -1  -4  -4  307.01   14.16
   1  -4   4  332.36   14.55
   1   4   4  371.89   16.60
   1   4   4  371.40   15.12
   1  -4   4  344.93   15.03
   1  -4   5  267.44   14.71
   1  -4   5  239.33   11.49
   1  -4   5  234.34   11.81
   1   4   5  269.52   12.01
   1   4   5  254.61   13.39
   1  -4   6    2.36    1.41
   1  -4   6    2.70    0.75
   1  -4   6    3.60    0.95
   1   4   6    2.89    0.87
   1   4   6    4.27    1.42
   1  -4   7   10.51    2.44
   1   4   7   11.78    2.41
   1  -4   7   11.26    1.76
   1   4   7   12.14    1.79
   1  -4   7    9.32    1.52
   1   4   8    1.39    0.40
   1  -4   8    1.13    0.38
   1  -4   8    1.39    0.73
   1   4   8    1.44    0.75
   1   4   9  116.50    7.71
   1  -4   9  110.15    7.52
   1   4   9  117.17    5.61
   1  -4   9  111.39    5.53
   1  -4  10    2.09    1.00
   1   4  10    2.22    1.11
   1   4  10    1.92    0.54
   1  -4  10    2.51    0.59
   1  -4  11  130.30    7.33
   1   4  11  127.13    6.86
   1   4  11  130.28    6.51
   1  -4  11  131.88    6.47
   1   4  11  128.06    9.17
   1  -4  11  129.27    8.96
   1   4  12  451.98   21.25
   1  -4  12  504.85   22.06
   1   4  12  440.10   22.10
   1  -4  12  485.65   22.17
   1   4  12  477.34   21.33
   1  -4  12  467.50   21.81
   1   4  12  499.33   20.97
   1  -4  12  489.62   20.83
   1  -4  12  529.33   24.80
   1   4  12  515.54   25.07
   1   4  13   95.86    5.96
   1  -4  13  105.54    6.52
   1   4  13  110.98    6.15
   1   4  13   90.00    6.42
   1   4  13   99.25    6.80
   1  -4  13  104.25    6.72
   1  -4  13  110.77    5.67
   1   4  13  104.38    5.71
   1   4  13  112.58    8.91
   1  -4  13  103.32    8.41
   1  -4  14    5.47    1.97
   1   4  14    2.59    1.66
   1   4  14    2.30    0.84
   1  -4  14    3.45    1.15
   1   4  14    1.01    0.88
   1   4  14    4.78    1.47
   1  -4  14    2.85    1.11
   1  -4  14    2.47    0.73
   1   4  14    2.83    0.81
   1   4  14    1.98    0.87
   1   4  15    9.46    1.52
   1   4  15    9.97    2.04
   1  -4  15   14.10    2.27
   1  -4  15   14.53    2.95
   1   4  15   10.63    2.71
   1  -4  15   11.59    1.46
   1   4  15   11.58    1.54
   1   4  15   11.37    1.74
   1  -4  15   12.57    2.01
   1   4  15   10.72    1.96
   1  -4  16  184.42   10.12
   1   4  16  173.38   10.26
   1  -4  16  188.92   10.56
   1   4  16  173.41   10.66
   1  -4  16  175.12   12.64
   1   4  16  161.52   12.67
   1   4  16  158.87    9.27
   1   4  16  180.39    9.19
   1  -4  16  200.70    9.13
   1  -4  17   17.53    4.66
   1  -4  17   10.06    2.01
   1   4  17   12.92    2.39
   1   4  17   11.49    4.02
   1  -4  17    6.59    2.13
   1   4  17   10.36    2.82
   1   4  17   10.45    2.04
   1  -4  17    8.63    1.74
   1   4  18  165.76    9.98
   1  -4  18  162.41    9.55
   1   4  18  148.43    8.88
   1  -4  18  173.50    9.37
   1   4  18  160.61    9.51
   1  -4  19  486.78   21.31
   1   4  19  421.31   21.27
   1   4  19  418.05   20.22
   1   4  19  444.29   20.21
   1   4  19  433.49   20.90
   1  -4  19  469.08   20.78
   1  -4  20   15.45    2.19
   1   4  20   14.32    2.18
   1   4  20   13.61    1.68
   1  -4  20   14.29    1.91
   1   4  20   12.23    1.65
   1   4  20   12.64    2.01
   1  -4  21   20.02    2.25
   1   4  21   17.02    2.22
   1   4  21   17.32    1.71
   1   4  22    2.92    0.89
   1  -4  22    3.23    0.89
  -1   5  23    0.10    0.47
  -1  -5  23    0.70    0.45
  -1  -5  22   86.02    4.88
  -1   5  22   76.98    5.01
  -1   5  22   67.98    4.57
  -1   5  22   77.03    4.77
  -1  -5  22   77.85    4.53
  -1   5  21  136.37    5.48
  -1  -5  21  154.29    5.32
  -1   5  21  147.37    4.60
  -1  -5  21  153.52    5.71
  -1   5  21  138.24    5.91
  -1   5  21  134.12    5.35
  -1  -5  20  230.88   10.60
  -1   5  20  223.14   10.77
  -1   5  20  210.05   12.04
  -1  -5  20  252.87   12.08
  -1   5  20  208.97   11.24
  -1  -5  20  246.80   11.70
  -1   5  20  220.29   11.83
  -1   5  19    1.41    1.05
  -1  -5  19    1.40    1.01
  -1  -5  19    1.22    0.89
  -1   5  19    2.69    1.10
  -1   5  19    5.18    1.22
  -1   5  19    2.09    0.76
  -1  -5  19    2.71    0.74
  -1  -5  18    3.31    1.36
  -1   5  18    0.95    0.78
  -1   5  18    3.94    1.14
  -1  -5  18    1.69    1.09
  -1   5  18    1.23    0.99
  -1  -5  18    1.61    0.68
  -1   5  18    2.22    0.79
  -1   5  18    1.75    1.02
  -1  -5  18    3.00    1.17
  -1   5  17   75.53    5.40
  -1  -5  17   75.52    5.49
  -1   5  17   77.51    5.06
  -1  -5  17   81.34    5.85
  -1   5  17   66.66    5.73
  -1   5  17   69.40    7.61
  -1  -5  17   71.88    7.29
  -1   5  17   79.09    4.81
  -1  -5  17   76.06    4.59
  -1   5  16    1.65    0.87
  -1   5  16    0.99    0.61
  -1  -5  16    1.83    0.70
  -1  -5  16    2.46    1.34
  -1   5  16    0.47    1.08
  -1   5  16    1.62    0.90
  -1   5  15    8.44    1.57
  -1  -5  15    6.28    1.57
  -1  -5  15    8.34    1.19
  -1   5  15    5.16    1.05
  -1   5  15    7.50    2.35
  -1  -5  15    4.65    1.75
  -1   5  15    8.31    1.41
  -1   5  14    2.16    0.94
  -1  -5  14    1.77    1.18
  -1  -5  14    1.76    0.93
  -1  -5  14    1.93    0.69
  -1   5  14    1.31    0.61
  -1  -5  14    2.16    1.25
  -1   5  14    0.41    0.67
  -1  -5  14    1.56    1.10
  -1   5  14    0.54    0.57
  -1  -5  13  210.91   11.06
  -1   5  13  200.03   10.59
  -1  -5  13  175.77   14.69
  -1   5  13  220.66   13.49
  -1  -5  13  210.26   12.90
  -1  -5  13  214.35   13.30
  -1   5  13  207.10    9.87
  -1  -5  12    0.58    0.67
  -1  -5  12    1.62    0.86
  -1   5  12    0.29    0.50
  -1  -5  12    1.30    1.00
  -1  -5  12    1.48    0.91
  -1   5  12    1.67    0.95
  -1   5  12    0.39    0.78
  -1  -5  11    2.81    1.59
  -1   5  11    0.54    0.58
  -1   5  11    1.18    0.84
  -1  -5  11    3.80    1.35
  -1  -5  11    2.64    1.10
  -1   5  11    2.50    1.24
  -1  -5  10   79.99    8.65
  -1   5  10  108.58    7.25
  -1  -5  10   87.31    6.50
  -1  -5  10   92.03    6.93
  -1  -5   9   52.40    6.62
  -1  -5   9   61.36    4.85
  -1   5   9   69.48    5.26
  -1  -5   8   38.74    5.32
  -1   5   8   47.45    3.92
  -1  -5   8   35.97    3.41
  -1   5   8   42.12    4.25
  -1   5   8   41.36    4.21
  -1  -5   7    7.91    2.42
  -1   5   7   14.54    2.24
  -1   5   7   11.34    2.02
  -1   5   7   11.62    1.77
  -1  -5   7   11.36    1.65
  -1   5   6  848.46   36.25
  -1   5   6  860.97   36.56
  -1   5   6  907.52   35.40
  -1   5   5 1740.57   69.76
  -1   5   5 1759.90   70.17
  -1   5   5 1780.86   68.79
  -1   5   4  447.85   19.12
  -1   5   4  422.46   19.94
  -1   5   3    2.40    0.75
   1   5  -3    1.43    0.76
  -1   5   2  599.66   24.77
   1  -5  -2  626.80   24.23
   1  -5  -1  260.45    9.78
  -1   5   1  279.83   10.63
   1   5   0  383.89   16.62
   1  -5   0  403.99   16.58
   1  -5   1  890.04   39.87
  -1  -5  -2   92.44    5.87
   1  -5   2   93.62    7.01
   1   5   2   89.27    5.53
   1   5   2   93.11    5.54
   1  -5   2   92.22    5.28
   1   5   2   72.37    4.86
   1   5   3    1.99    0.84
   1   5   3    1.04    0.70
   1   5   3    0.45    0.57
   1  -5   3    1.66    0.72
   1  -5   3    1.29    0.29
   1  -5   3    0.07    0.25
  -1  -5  -3    0.84    0.58
   1  -5   3    1.55    0.95
   1  -5   4  412.49   17.74
  -1  -5  -4  418.04   18.17
   1   5   4  429.85   18.28
   1  -5   4  395.17   18.22
   1   5   4  454.57   20.23
   1  -5   5  329.79   14.89
   1  -5   5  369.51   19.23
   1   5   5  357.07   17.39
   1  -5   5  313.68   15.26
   1   5   5  351.45   15.44
   1  -5   6   29.68    4.20
   1   5   6   27.06    2.56
   1  -5   6   22.45    2.36
   1  -5   6   23.62    2.16
   1   5   6   23.22    3.24
   1  -5   7  486.97   22.24
   1   5   7  538.70   23.04
   1  -5   7  481.16   22.66
   1   5   7  560.87   25.58
   1  -5   7  526.78   26.58
   1   5   7  487.10   20.78
   1  -5   8   46.71    2.69
   1   5   8   47.09    2.71
   1  -5   8   51.72    6.07
   1  -5   8   51.81    4.24
   1   5   8   56.50    4.47
   1  -5   9   49.10    2.87
   1   5   9   48.77    2.89
   1  -5   9   53.85    4.63
   1   5   9   52.61    4.63
   1   5  10   12.69    1.27
   1  -5  10   11.30    1.21
   1   5  10   13.07    1.54
   1   5  10   14.60    1.42
   1  -5  10   13.54    2.33
   1   5  10   14.15    2.45
   1  -5  11   21.91    1.79
   1   5  11   21.25    1.80
   1  -5  11   21.43    2.36
   1   5  11   17.40    2.26
   1  -5  11   21.91    2.26
   1   5  11   22.10    2.36
   1   5  11   22.27    2.13
   1   5  11   20.08    1.86
   1  -5  11   23.55    3.30
   1   5  11   19.90    3.12
   1   5  12   31.99    2.39
   1  -5  12   27.78    2.19
   1   5  12   32.69    3.20
   1  -5  12   27.33    2.87
   1  -5  12   28.84    2.78
   1   5  12   33.48    2.75
   1   5  12   25.62    2.77
   1   5  12   27.66    2.53
   1  -5  12   31.16    4.03
   1   5  12   28.94    4.00
   1   5  13  274.31   12.05
   1  -5  13  255.73   11.80
   1  -5  13  263.24   13.21
   1   5  13  229.65   13.09
   1  -5  13  251.43   12.82
   1   5  13  265.38   12.53
   1   5  13  241.43   12.97
   1   5  13  245.50   12.33
   1  -5  13  266.34   15.44
   1   5  13  270.33   15.92
   1   5  14    3.00    0.92
   1  -5  14    1.89    0.66
   1   5  14    2.46    0.77
   1   5  14    3.62    1.36
   1  -5  14    2.80    1.13
   1  -5  14    2.28    1.04
   1   5  14    3.39    1.11
   1   5  14    1.28    1.11
   1  -5  14    1.53    1.25
   1   5  14    1.63    0.77
   1   5  15   15.00    1.78
   1  -5  15   18.21    1.81
   1  -5  15   19.71    2.62
   1   5  15   16.28    2.59
   1   5  15   19.58    2.61
   1   5  15   19.90    2.27
   1  -5  15   19.35    2.40
   1   5  15   13.82    1.90
   1  -5  15   12.15    2.77
   1   5  15   10.98    2.82
   1   5  16    0.88    0.61
   1  -5  16    0.97    0.57
   1   5  16    0.22    0.90
   1  -5  16    2.45    1.09
   1   5  16   -0.48    0.95
   1  -5  16   -0.42    0.84
   1   5  16    1.43    0.84
   1   5  16    2.22    1.21
   1  -5  16    0.88    1.44
   1  -5  16    1.50    1.02
   1   5  17   74.48    5.42
   1   5  17   68.52   10.32
   1  -5  17   75.09   10.03
   1  -5  17   80.34    5.76
   1   5  17   75.47    5.96
   1   5  17   70.44    5.54
   1  -5  17   74.29    5.37
   1   5  18  150.57    8.95
   1  -5  18  164.88    9.44
   1   5  18  161.24    9.80
   1  -5  18  176.27    9.24
   1   5  18  153.47    9.27
   1   5  19   75.80    5.25
   1   5  19   78.88    5.97
   1  -5  19   87.79    5.83
   1   5  19   75.78    5.55
   1  -5  19   89.40    5.55
   1   5  19   82.53    5.29
   1   5  20   65.13    4.41
   1  -5  20   80.70    5.09
   1   5  20   73.16    5.23
   1   5  20   64.82    4.40
   1  -5  21  189.65    9.29
   1   5  21  174.50    9.47
   1   5  21  177.11    8.70
   1  -5  22  121.40    5.97
   1   5  22  105.62    6.07
   1   6 -23   41.68    2.44
  -1   6  22   47.33    3.32
  -1  -6  22   50.98    3.23
  -1   6  22   40.02    3.22
  -1   6  22   47.43    2.93
  -1   6  21   25.57    2.54
  -1   6  21   23.51    2.54
  -1  -6  21   28.92    2.51
  -1   6  21   21.23    2.30
  -1  -6  21   24.36    2.22
  -1   6  20   49.21    4.17
  -1  -6  20   52.27    3.96
  -1  -6  20   53.03    3.79
  -1   6  20   46.19    3.88
  -1   6  20   48.81    4.03
  -1   6  20   43.34    3.50
  -1  -6  19   30.81    3.03
  -1   6  19   18.84    2.69
  -1   6  19   26.95    2.53
  -1   6  19   23.45    2.75
  -1  -6  19   26.16    2.70
  -1  -6  19   28.53    2.22
  -1   6  19   23.55    2.17
  -1   6  19   25.13    2.63
  -1   6  18   80.88    6.26
  -1  -6  18   92.94    6.21
  -1   6  18   77.14    5.90
  -1   6  18   87.84    5.54
  -1  -6  18   97.94    6.01
  -1   6  18   83.05    5.75
  -1  -6  18   87.25    4.95
  -1   6  18   89.60    5.17
  -1   6  17  132.57    7.10
  -1  -6  17  142.69    6.98
  -1  -6  17  144.45    8.35
  -1   6  17  109.84    8.09
  -1   6  17  134.27    7.56
  -1   6  17  129.53    8.19
  -1  -6  17  146.97    8.11
  -1   6  17  131.53    7.87
  -1  -6  17  112.84    9.56
  -1   6  17  115.41   10.10
  -1   6  16    1.89    0.74
  -1  -6  16    2.05    0.69
  -1  -6  16    1.20    0.93
  -1   6  16    3.56    1.08
  -1   6  16    5.46    1.33
  -1  -6  16    2.37    1.21
  -1   6  16    4.10    1.58
  -1   6  15   25.47    2.62
  -1   6  15   24.71    2.73
  -1  -6  15   31.97    4.32
  -1   6  15   27.19    4.22
  -1  -6  15   27.04    2.25
  -1   6  15   26.52    2.35
  -1   6  14  314.36   15.01
  -1   6  14  324.92   14.44
  -1  -6  14  323.04   14.24
  -1  -6  14  312.32   17.76
  -1  -6  14  309.34   17.89
  -1   6  14  330.61   18.54
  -1   6  14  303.46   15.26
  -1  -6  14  268.86   20.10
  -1  -6  13   12.24    1.37
  -1   6  13   16.20    1.64
  -1  -6  13   20.20    4.36
  -1   6  13   13.00    1.87
  -1   6  13   13.47    2.75
  -1  -6  13   13.84    2.74
  -1  -6  13   14.48    2.66
  -1  -6  12    7.58    1.00
  -1   6  12    6.79    2.16
  -1   6  12    6.41    0.99
  -1   6  12    5.56    2.59
  -1   6  12    7.53    1.37
  -1  -6  12    6.41    2.58
  -1  -6  12    9.05    2.01
  -1   6  12    7.88    2.03
  -1  -6  12    6.93    1.81
  -1  -6  11   17.12    2.77
  -1   6  11   21.40    4.22
  -1  -6  11   19.36    4.33
  -1   6  11   16.49    2.03
  -1  -6  11   18.29    2.74
  -1   6  11   18.63    2.90
  -1  -6  10   79.41    6.35
  -1   6  10   95.49    8.85
  -1  -6  10   86.16    9.16
  -1  -6  10   80.45    6.18
  -1   6  10   95.27    6.74
  -1   6   9  213.26   12.74
  -1   6   9  212.61   12.77
  -1   6   9  196.84   13.99
  -1  -6   9  198.72   15.05
  -1  -6   9  198.08   11.20
  -1   6   9  225.38   11.77
  -1   6   8  581.09   26.92
  -1   6   8  575.76   28.78
  -1   6   8  588.23   27.17
  -1  -6   8  547.42   30.02
  -1  -6   8  508.70   24.96
  -1   6   8  576.91   25.48
  -1   6   7  395.24   19.58
  -1   6   7  410.81   19.98
  -1   6   7  421.02   21.49
  -1  -6   7  368.58   22.34
  -1  -6   7  354.36   17.81
  -1   6   7  416.32   18.32
  -1   6   6    9.99    1.80
  -1   6   6   13.94    2.34
  -1   6   6   11.57    1.53
  -1  -6   6    8.38    1.30
  -1   6   5   15.57    2.15
  -1   6   5   11.57    2.03
  -1  -6   5   13.34    2.93
  -1  -6   5   10.48    1.31
  -1   6   5    9.44    1.25
  -1  -6   4  140.48   10.32
  -1  -6   4  121.38    6.38
  -1   6   4  136.45    6.47
  -1   6   4  140.44    7.74
  -1  -6   3 1013.32   44.56
  -1   6   3 1075.92   44.50
   1  -6  -3 1265.88   45.44
   1   6  -3  985.88   45.31
  -1   6   3 1255.29   46.41
   1   6  -2  830.53   45.88
   1  -6  -2 1369.15   46.30
  -1   6   2 1100.53   45.68
  -1  -6   2 1252.76   45.91
  -1   6   2 1579.76   48.08
  -1   6   1   24.44    2.09
  -1  -6   0  394.92   20.01
   1  -6   0  391.57   19.95
   1  -6   1  345.39   18.05
  -1  -6  -1  324.65   17.05
  -1  -6  -2  660.26   31.26
   1  -6   2  742.31   33.47
   1   6   2  684.03   30.70
   1   6   2  717.41   30.93
   1   6   3   10.97    1.56
   1  -6   3   17.07    1.97
   1  -6   3    8.94    0.64
  -1  -6  -3   12.26    1.86
   1  -6   3   15.13    2.85
   1   6   3   13.10    2.00
   1   6   3   18.03    2.31
   1   6   4   92.77    6.58
   1  -6   4   86.50    4.40
   1   6   4   85.37    5.97
   1  -6   4   99.68    6.26
  -1  -6  -4   95.51    5.53
   1  -6   4  103.94    8.35
   1   6   4   93.19    4.79
   1  -6   5   11.80    1.22
   1   6   5   15.07    2.46
   1   6   5   13.75    1.56
   1  -6   5   10.88    1.41
   1  -6   6   25.36    2.16
   1  -6   6   25.45    2.47
   1   6   6   26.90    2.53
   1  -6   6   31.59    4.63
   1   6   6   30.15    3.80
   1   6   7  291.83   13.61
   1  -6   7  280.47   13.49
   1   6   7  306.58   16.35
   1   6   7  271.18   11.63
   1  -6   7  256.15   11.58
   1  -6   8  461.37   21.18
   1   6   8  469.67   21.26
   1   6   8  442.66   23.88
   1   6   8  456.31   18.91
   1  -6   8  425.97   18.83
   1   6   9  150.73    6.96
   1  -6   9  141.09    6.88
   1   6   9  149.73    7.22
   1  -6   9  153.66    9.12
   1   6   9  162.09    9.38
   1   6  10  533.90   21.96
   1  -6  10  519.20   21.85
   1  -6  10  512.08   24.70
   1   6  10  521.41   24.93
   1   6  10  534.88   22.69
   1   6  10  475.68   22.11
   1   6  11    2.66    0.86
   1   6  11    1.80    0.62
   1  -6  11    0.28    0.66
   1   6  11    1.84    1.12
   1  -6  11    2.86    0.92
   1   6  11    2.64    0.90
   1   6  11    1.46    0.76
   1  -6  11    2.53    0.83
   1   6  11    1.10    0.60
   1  -6  11    2.11    0.58
   1   6  11    2.93    0.67
   1   6  12    6.26    0.98
   1  -6  12    6.57    0.95
   1   6  12    5.73    1.36
   1  -6  12    5.82    1.35
   1  -6  12    6.32    1.84
   1   6  12    3.44    1.07
   1  -6  12    6.91    1.31
   1   6  12    6.61    1.18
   1   6  12    7.84    1.32
   1   6  13    8.82    2.28
   1  -6  13    8.63    2.17
   1   6  13    7.74    1.64
   1  -6  13    9.40    1.70
   1  -6  13    7.78    1.49
   1   6  13    9.32    1.67
   1   6  13    9.54    1.51
   1   6  13    6.30    1.23
   1  -6  13    8.31    1.12
   1   6  13    6.33    1.07
   1   6  14    2.07    0.71
   1  -6  14    1.35    0.58
   1  -6  14    2.60    1.22
   1   6  14    1.67    1.19
   1   6  14    1.93    0.97
   1  -6  14    2.20    0.94
   1   6  14    3.14    0.92
   1   6  14    1.54    0.98
   1  -6  14    2.69    1.09
   1   6  14    3.26    1.03
   1  -6  15   78.27    7.29
   1   6  15   64.47    7.18
   1  -6  15   85.30    5.59
   1   6  15   80.30    5.32
   1   6  15   81.73    5.77
   1   6  15   69.26    4.89
   1   6  15   76.24    5.88
   1  -6  15   91.54    6.01
   1   6  15   66.17    9.84
   1  -6  15   85.18   10.49
   1   6  16    5.98    1.48
   1  -6  16    3.72    1.18
   1   6  16    6.70    1.47
   1   6  16    5.71    1.36
   1  -6  16    7.06    1.63
   1   6  16    5.90    1.58
   1   6  16    7.82    3.20
   1   6  17   34.15    3.51
   1  -6  17   40.76    3.53
   1   6  17   31.21    3.32
   1   6  17   36.07    3.84
   1  -6  17   43.43    3.81
   1   6  18   73.83    5.49
   1  -6  18   88.34    5.52
   1   6  18   76.11    5.42
   1  -6  18   92.52    5.89
   1   6  18   71.21    5.73
   1   6  19   26.41    2.61
   1   6  19   20.41    2.45
   1   6  19   23.96    2.53
   1   6  19   24.80    2.89
   1  -6  19   23.59    2.57
   1   6  20    5.88    1.16
   1   6  20    3.91    0.95
   1   6  20    5.21    1.31
   1  -6  20    4.39    1.08
   1   6  21  114.98    6.05
   1  -6  21  123.57    6.28
   1   6  21  107.80    6.39
  -1   6 -22   79.20    3.92
   1   7 -23   23.15    1.53
  -1   7  22    2.84    0.65
   1   7 -22    4.00    0.73
  -1   7  21   -0.22    0.28
  -1   7  21    1.36    0.74
  -1  -7  21    0.88    0.59
  -1   7  21   -0.13    0.36
  -1   7  20   27.03    2.34
  -1  -7  20   35.97    2.41
  -1   7  20   28.06    2.65
  -1   7  20   28.37    2.61
  -1  -7  20   35.28    2.60
  -1   7  19   11.04    1.71
  -1   7  19   10.66    1.94
  -1  -7  19   18.38    2.17
  -1   7  19    9.52    1.68
  -1  -7  19   16.92    1.94
  -1   7  19   17.92    1.99
  -1   7  19   16.73    2.24
  -1   7  18  107.41    7.31
  -1   7  18  117.47    6.32
  -1  -7  18  125.08    6.19
  -1   7  18  106.54    7.37
  -1  -7  18  125.28    7.30
  -1   7  18  118.16    7.07
  -1   7  18  120.68    6.93
  -1  -7  18  138.17    7.23
  -1   7  18  101.87    7.03
  -1  -7  17  193.96   12.75
  -1  -7  17  204.14    9.60
  -1   7  17  206.65    9.83
  -1  -7  17  226.36   11.15
  -1   7  17  178.59   10.99
  -1   7  17  205.23   10.80
  -1  -7  17  222.15   10.80
  -1   7  17  200.31   10.52
  -1   7  17  173.70   10.65
  -1  -7  16   33.83    4.38
  -1  -7  16   31.81    2.49
  -1   7  16   38.03    2.77
  -1   7  16   30.27    3.36
  -1  -7  16   37.24    3.42
  -1   7  16   26.25    3.06
  -1  -7  16   34.15    3.14
  -1   7  16   31.69    3.01
  -1   7  16   32.28    3.18
  -1  -7  15  201.60   10.08
  -1   7  15  201.59   10.04
  -1  -7  15  193.44   10.29
  -1   7  15  184.34   10.11
  -1  -7  15  189.17    8.98
  -1   7  15  192.07    9.19
  -1  -7  15  179.63   12.10
  -1   7  15  170.85   12.42
  -1   7  14   28.39    2.80
  -1  -7  14   29.38    3.96
  -1   7  14   23.33    3.88
  -1  -7  14   29.96    2.30
  -1   7  14   30.43    2.40
  -1  -7  14   26.86    5.29
  -1   7  14   31.94    3.08
  -1  -7  13  369.96   20.27
  -1  -7  13  384.96   20.25
  -1   7  13  382.81   20.71
  -1   7  13  390.20   18.37
  -1  -7  13  381.64   24.90
  -1   7  13  402.48   17.20
  -1  -7  13  385.48   16.99
  -1  -7  12    1.13    0.80
  -1  -7  12    2.42    1.05
  -1   7  12    0.31    0.63
  -1   7  12    0.66    1.31
  -1   7  12    3.11    1.00
  -1  -7  12    2.10    1.40
  -1   7  12    1.51    0.52
  -1  -7  12    2.73    0.62
  -1  -7  11  417.49   21.17
  -1   7  11  421.72   21.47
  -1   7  11  495.37   26.58
  -1  -7  11  425.11   26.46
  -1   7  11  432.84   19.77
  -1   7  11  442.18   18.54
  -1  -7  11  393.42   21.16
  -1  -7  11  425.75   18.40
  -1   7  10  100.82    7.12
  -1  -7  10  101.29    6.96
  -1   7  10   99.90    9.58
  -1   7  10   99.37    6.07
  -1  -7  10  104.39   10.64
  -1   7  10  100.47    5.03
  -1   7  10  103.38    8.41
  -1  -7  10   95.48    7.07
  -1  -7   9  226.20   12.60
  -1   7   9  252.65   13.02
  -1   7   9  238.87   14.64
  -1   7   9  240.05   16.18
  -1  -7   9  266.02   18.11
  -1   7   9  270.44   14.98
  -1  -7   8  130.95    7.72
  -1   7   8  138.86    7.94
  -1   7   8  121.55   10.26
  -1   7   8  132.11    9.50
  -1  -7   8  141.98   12.12
  -1   7   8  143.95    9.47
  -1   7   7  491.10   21.96
  -1  -7   7  457.87   21.74
  -1   7   7  516.41   24.66
  -1   7   7  490.95   25.78
  -1   7   7  523.62   24.10
  -1   7   6    1.71    0.58
  -1  -7   6    2.12    0.67
  -1   7   6    3.16    1.37
  -1   7   6    0.71    0.83
  -1   7   5   98.37    5.24
  -1  -7   5   93.73    5.20
  -1   7   5  112.71    7.66
  -1  -7   5  106.53    9.54
  -1   7   5  102.82    6.73
  -1   7   4  431.82   18.58
  -1  -7   4  516.48   25.17
  -1   7   4  470.36   20.53
   1   7  -4  407.12   19.38
   1  -7  -4  504.88   19.53
  -1  -7   4  400.99   18.34
  -1   7   4  431.57   18.36
   1  -7  -3   90.86    3.84
  -1  -7   3  116.26    8.72
  -1   7   3   99.97    5.46
  -1  -7   3   75.67    3.30
  -1   7   2  423.34   19.44
  -1  -7   2  450.98   23.27
  -1  -7   1   34.64    4.47
  -1  -7   0    1.63    1.19
  -1  -7  -1   35.30    4.04
   1  -7   1   42.71    4.84
   1   7   1   32.18    2.22
  -1  -7  -2    8.97    1.88
   1  -7   2    9.91    2.39
   1   7   2    7.48    0.97
   1   7   2    7.62    1.55
   1   7   2    8.62    1.72
   1   7   3  540.49   24.04
  -1  -7  -3  592.28   26.42
   1  -7   3  693.03   30.32
   1   7   3  522.93   24.67
   1   7   3  648.87   26.93
   1   7   3  606.09   26.65
   1   7   4    0.55    0.42
  -1  -7  -4    0.33    0.43
   1  -7   4    0.88    1.14
   1   7   4    2.33    1.04
   1   7   4    1.25    0.91
   1  -7   4    1.03    0.72
   1   7   4    0.52    0.60
   1   7   5   67.32    5.80
   1   7   5   66.51    5.56
   1   7   5   61.48    3.66
   1  -7   5   57.61    4.82
   1   7   5   52.52    4.70
   1  -7   6  177.73    9.57
   1   7   6  215.82   12.65
   1  -7   6  220.58   11.85
   1   7   6  181.46   11.35
   1  -7   7   66.20    7.48
   1  -7   7   59.08    4.37
   1   7   7   68.77    4.63
   1  -7   7   60.07    3.12
   1   7   7   76.78    6.92
   1   7   8  220.72   14.26
   1  -7   8  204.97   11.13
   1   7   8  218.84   11.34
   1  -7   8  200.92    9.21
   1   7   8  222.66   10.18
   1  -7   8  241.14   16.12
   1   7   9  591.20   27.44
   1  -7   9  610.25   27.42
   1  -7   9  584.06   24.81
   1   7   9  594.24   24.85
   1   7   9  603.47   25.33
   1  -7  10   28.04    1.96
   1   7  10   27.45    1.98
   1   7  10   25.11    2.50
   1  -7  10   27.85    3.30
   1   7  10   31.19    3.58
   1   7  10   23.58    2.31
   1   7  10   28.83    2.53
   1   7  10   29.18    2.29
   1  -7  11   32.91    2.25
   1   7  11   33.72    2.34
   1   7  11   29.70    2.89
   1  -7  11   29.49    3.71
   1   7  11   39.29    4.24
   1   7  11   30.47    2.78
   1   7  11   30.53    2.78
   1   7  11   32.20    2.78
   1   7  11   33.73    2.61
   1  -7  12    1.04    0.44
   1   7  12    1.05    0.45
   1   7  12    0.89    0.71
   1  -7  12    0.79    0.73
   1  -7  12    0.31    0.61
   1   7  12    0.33    0.86
   1  -7  12    0.28    0.56
   1   7  12    0.62    0.62
   1   7  12    0.54    0.47
   1   7  12    0.29    0.66
   1   7  13  219.50   11.50
   1  -7  13  221.67   13.42
   1   7  13  202.95   13.49
   1   7  13  195.80   11.36
   1  -7  13  238.96   11.59
   1  -7  13  230.55   17.35
   1  -7  13  235.73   11.22
   1   7  13  230.52   11.25
   1   7  13  187.10   11.01
   1  -7  13  227.27   10.21
   1   7  13  208.54   10.81
   1   7  14   43.81    3.92
   1   7  14   44.63    3.49
   1  -7  14   56.53    7.84
   1  -7  14   47.13    3.95
   1   7  14   35.70    6.83
   1   7  14   40.05    3.92
   1  -7  14   53.09    3.91
   1   7  14   41.09    3.74
   1   7  14   45.72    3.74
   1  -7  15  793.33   33.11
   1   7  15  696.78   33.11
   1   7  15  660.62   41.29
   1   7  15  771.08   33.17
   1   7  15  642.77   32.52
   1  -7  15  815.00   32.76
   1   7  15  761.54   32.63
   1  -7  16  189.38    9.72
   1   7  16  161.85    9.73
   1   7  16  156.38   15.53
   1   7  16  167.64    9.58
   1   7  16  145.16    9.15
   1   7  16  174.75    9.28
   1  -7  16  170.64    9.15
   1   7  17    5.74    1.55
   1  -7  17    8.21    1.62
   1  -7  17    7.91    1.51
   1   7  17    9.07    1.65
   1   7  17   10.64    1.84
   1   7  18   33.38    3.23
   1  -7  18   35.47    3.06
   1   7  18   39.23    3.26
   1   7  18   37.93    3.13
   1  -7  19  134.10    7.04
   1   7  19  120.84    6.98
   1   7  19  123.56    6.95
   1  -7  20    9.64    1.33
   1   7  20    9.27    1.30
   1   7  20    8.53    1.33
  -1   7 -21   24.37    1.77
   1   7  21   24.40    2.05
   1   8 -22    1.04    0.42
  -1   8  22    0.59    0.39
  -1   8  21    1.12    0.58
   1   8 -21    1.52    0.60
  -1   8  20  144.78    8.07
  -1   8  19   47.84    3.94
  -1   8  19   42.78    3.37
  -1   8  19   44.19    3.39
  -1   8  19   38.55    3.42
  -1   8  18  518.73   23.94
  -1   8  18  486.64   24.08
  -1   8  18  535.27   24.02
  -1   8  17    8.95    1.56
  -1   8  17    7.41    1.53
  -1   8  17    6.04    1.37
  -1   8  17    8.39    1.56
  -1  -8  17    6.36    0.98
  -1   8  16  176.13    8.95
  -1   8  16  133.36    8.47
  -1   8  16  131.20    8.67
  -1   8  16  162.81    8.91
  -1  -8  16  159.18    7.58
  -1   8  16  165.54    7.80
  -1   8  15   76.69    6.11
  -1   8  15   84.38    6.04
  -1   8  15  111.62    6.46
  -1   8  15  104.45    5.41
  -1  -8  15  107.83    5.32
  -1   8  15   98.64    6.40
  -1  -8  14   39.89    2.62
  -1   8  14   39.48    2.69
  -1   8  14   28.97    3.15
  -1   8  14   36.45    3.42
  -1  -8  14   40.91    4.49
  -1   8  14   38.59    3.37
  -1   8  14   32.42    3.14
  -1  -8  13    1.08    0.43
  -1   8  13    1.43    0.73
  -1  -8  13   -0.29    0.48
  -1  -8  13    0.76    1.24
  -1   8  13    0.54    0.83
  -1   8  12  152.57   13.67
  -1  -8  12  156.39    7.44
  -1   8  12  165.20    8.96
  -1  -8  12  153.23   14.21
  -1  -8  12  153.61    9.87
  -1  -8  11  273.41   11.89
  -1   8  11  278.54   13.50
  -1  -8  11  302.19   20.76
  -1   8  11  288.98   19.45
  -1   8  11  253.94   14.37
  -1  -8  11  290.98   14.60
  -1  -8  10  833.40   36.59
  -1  -8  10  794.03   33.52
  -1   8  10  818.39   35.29
  -1  -8  10  924.27   44.63
  -1   8  10  886.67   42.31
  -1  -8  10  794.67   35.93
  -1   8  10  813.17   36.17
  -1  -8   9   57.44    4.96
  -1   8   9   69.17    4.61
  -1  -8   9   73.59    8.77
  -1   8   9   69.15    6.68
  -1   8   9   66.19    7.49
  -1  -8   9   64.07    4.72
  -1   8   9   52.29    4.47
  -1   8   8  454.94   19.87
  -1   8   8  503.67   24.53
  -1   8   8  496.93   26.13
  -1  -8   8  452.81   20.85
  -1   8   8  437.28   20.80
  -1   8   8  481.25   23.65
  -1   8   7   57.10    5.30
   1  -8  -7   51.58    3.13
  -1  -8   7   45.96    3.47
  -1   8   7   48.69    5.32
  -1   8   7   56.60    6.43
  -1  -8   6  249.81   12.72
  -1   8   6  328.65   16.83
  -1   8   6  325.00   17.99
  -1   8   6  286.10   12.88
  -1   8   6  296.77   15.39
   1   8  -6  272.55   14.28
   1  -8  -6  292.14   12.64
  -1  -8   6  332.01   20.15
  -1  -8   5    8.21    0.97
  -1   8   5    9.70    1.17
   1  -8  -5   12.04    1.22
   1   8  -5    9.58    1.46
  -1   8   5    9.65    1.86
  -1  -8   5    6.54    2.55
   1  -8  -4    8.30    1.04
  -1   8   4    9.64    1.15
  -1  -8   4   11.75    3.03
   1  -8  -3   44.13    2.76
  -1   8   3   40.79    2.69
  -1  -8   3   48.92    5.98
   1  -8  -2   30.29    2.22
  -1   8   2   32.10    2.19
   1  -8  -1   59.70    3.53
  -1  -8   1   69.56    6.70
   1  -8   0  620.12   26.53
  -1  -8   0  664.55   31.20
  -1  -8  -1   34.12    4.24
   1  -8   1   36.99    4.86
   1   8   1   32.73    2.34
   1   8   1   36.51    3.82
   1  -8   2  113.47    9.17
  -1  -8  -2   96.00    7.46
   1   8   2   96.26    5.16
   1   8   2  105.47    7.27
   1   8   2   93.41    6.77
  -1  -8  -3    5.84    1.55
   1  -8   3    6.54    2.30
   1   8   3    6.11    0.95
   1   8   3    7.22    1.76
   1   8   3    7.83    1.81
   1  -8   4  377.20   21.06
   1   8   4  378.47   18.26
   1   8   4  318.75   17.58
   1   8   4  323.60   14.92
   1  -8   5    7.44    2.46
   1   8   5    3.92    1.14
   1   8   5    3.93    1.47
   1   8   5    3.40    1.48
   1   8   5    2.79    0.73
   1   8   6   43.15    4.46
   1   8   6   58.10    5.61
   1   8   6   56.25    5.77
   1   8   6   57.09    3.60
   1  -8   7   14.31    3.60
   1   8   7    8.44    1.99
   1   8   7   15.37    3.02
   1   8   7   14.58    2.82
   1   8   7    9.08    1.33
   1   8   8 2256.22   99.12
   1   8   8 2269.28   93.00
   1   8   8 2335.95   93.62
   1  -8   8 2529.79   98.14
   1   8   9    2.99    0.83
   1   8   9    2.90    0.73
   1   8   9    2.25    0.81
   1   8   9    3.13    1.37
   1  -8   9    2.09    1.45
   1   8  10    4.69    1.02
   1   8  10    5.45    0.96
   1   8  10    6.51    1.20
   1   8  10    4.67    1.91
   1   8  11    0.96    0.62
   1   8  11    0.67    0.52
   1   8  11    1.19    1.19
   1   8  11    1.45    0.75
   1   8  12   16.66    2.02
   1   8  12   15.89    2.12
   1   8  12   17.88    2.06
   1   8  12   23.45    2.57
   1   8  13   49.21    3.97
   1   8  13   61.71    4.34
   1   8  13   53.26    7.52
   1   8  13   48.98    4.15
   1   8  13   52.28    3.89
   1   8  13   67.85    4.78
   1   8  14  466.89   20.64
   1   8  14  405.72   20.14
   1   8  14  384.51   26.66
   1   8  14  457.86   20.14
   1   8  14  412.70   19.82
   1   8  15    6.97    1.55
   1   8  15    7.17    1.46
   1   8  15    9.35    1.79
   1   8  15    7.59    1.66
   1   8  16  215.45   11.52
   1   8  16  250.81   11.96
   1   8  16  235.58   12.20
   1   8  16  214.00   11.91
   1   8  17   31.64    3.21
   1   8  17   31.35    3.18
   1   8  18   10.40    1.71
   1   8  18   12.70    1.88
   1  -8  18   10.50    1.31
   1   8  19   10.50    1.58
  -1   8 -19   10.74    1.33
   1   8  19    8.93    1.47
   1   8  20   71.84    4.44
  -1   8 -20   74.08    3.98
   1   8  20   67.66    4.30
   1   8  21   13.19    1.34
  -1   8 -21    8.72    0.94
   1   9 -22   38.36    2.19
  -1   9  21    1.52    0.58
   1   9 -21    1.60    0.55
   1   9 -20   10.70    1.30
  -1   9  20   11.74    1.66
   1   9 -19    0.60    0.66
  -1   9  19    0.34    0.26
  -1   9  19    0.77    0.68
  -1   9  18   27.98    2.71
  -1   9  18   28.19    2.64
  -1   9  17   70.16    4.84
  -1   9  17   67.34    4.77
  -1   9  16  240.24   11.82
  -1   9  16  211.17   11.56
  -1   9  16  232.61   12.14
  -1   9  15  125.46    7.17
  -1   9  15  112.63    7.07
  -1   9  15  107.09    7.13
  -1   9  14   38.19    3.41
  -1   9  14   38.40    3.59
  -1   9  14   36.85    3.50
  -1   9  13  288.49   14.88
  -1   9  13  295.25   15.09
  -1   9  13  325.59   15.07
  -1   9  12  137.12    8.00
  -1  -9  12  125.45   13.14
  -1   9  12  137.70    7.78
  -1   9  12  111.66   11.93
  -1   9  11  459.09   27.42
  -1  -9  11  473.91   29.03
  -1   9  11  429.75   20.53
  -1   9  11  439.57   20.15
  -1   9  10  326.81   21.29
  -1   9  10  313.43   15.10
  -1   9  10  323.72   15.71
  -1  -9  10  349.52   23.22
  -1  -9   9  150.31    9.25
  -1   9   9  176.65   12.27
  -1   9   9  175.26   13.56
  -1  -9   9  167.33   14.75
  -1   9   9  156.88    8.90
  -1   9   9  157.22    8.36
   1  -9  -9  161.93    7.91
  -1   9   8   57.29    6.12
  -1   9   8   48.95    6.51
  -1   9   8   52.66    3.37
   1  -9  -8   47.33    3.19
  -1   9   8   50.07    3.55
   1  -9  -7  393.57   17.00
  -1   9   7  366.91   16.99
  -1   9   7  425.46   21.95
  -1   9   7  393.40   22.79
   1   9  -7  392.94   17.27
  -1   9   7  374.45   17.29
   1  -9  -6  195.31    9.23
  -1   9   6  176.56   13.40
  -1   9   6  198.13   12.90
   1   9  -6  198.18    9.46
  -1  -9   6  203.42   15.74
  -1   9   6  194.91    9.46
  -1   9   5  167.31   11.52
  -1  -9   5  173.79   13.91
  -1   9   5  171.74    8.38
   1  -9  -5  171.16    8.23
  -1   9   4  259.81   12.43
   1  -9  -4  283.24   12.49
  -1  -9   3   45.48    6.12
  -1   9   3   40.49    2.77
   1  -9  -3   42.76    2.83
  -1  -9   2  132.53   10.73
  -1   9   2  122.61    6.14
   1  -9  -2  121.07    6.23
   1  -9  -1  250.79   11.60
  -1  -9   1  271.57   16.58
  -1  -9   0  117.22    9.48
  -1  -9  -1  290.03   17.17
   1   9   1  300.65   16.24
  -1  -9  -2  330.61   17.20
   1   9   2  285.77   13.40
   1   9   2  313.92   16.53
   1   9   2  300.72   15.91
  -1  -9  -3  113.73    8.09
   1  -9   3  122.83   10.55
   1   9   3  102.40    5.77
   1   9   3  124.95    8.64
   1   9   3  109.83    7.98
   1  -9   4   35.26    5.58
   1   9   4   29.96    2.41
   1   9   4   31.98    4.07
   1   9   4   26.98    3.76
   1  -9   5  118.12   10.72
   1   9   5  117.45    8.61
   1   9   5  103.05    8.23
   1   9   5   95.24    5.61
   1   9   6    6.76    2.05
   1   9   6    7.52    1.22
  -1   9  -6    8.06    1.13
  -1   9  -7    2.17    0.69
   1   9   7    2.74    0.80
   1   9   7    4.78    1.78
   1   9   7    2.24    1.37
   1   9   7    2.47    0.56
   1   9   7    2.24    0.78
   1   9   8   76.84    4.24
   1   9   8   76.13    4.70
   1   9   8   69.15    4.72
   1   9   8   72.72    4.75
   1   9   8   62.29    7.26
   1   9   9  416.84   18.72
   1   9   9  413.58   18.11
   1   9   9  400.59   18.76
   1   9  10   37.48    3.12
   1   9  10   35.32    2.69
   1   9  10   30.37    2.86
   1   9  11   24.34    2.53
   1   9  11   20.75    2.31
   1   9  12   65.87    4.61
   1   9  12   76.12    5.25
   1   9  13   21.96    2.67
   1   9  14  344.17   16.88
   1   9  14  344.06   16.58
   1   9  15  403.64   19.59
   1   9  15  417.72   19.31
   1   9  16    5.46    1.33
   1   9  16    5.72    1.49
  -1   9 -17   43.97    3.22
   1   9  17   43.74    3.78
  -1   9 -18   36.33    2.69
   1  -9  18   30.83    2.46
   1   9  18   36.71    3.21
   1   9  19    7.32    1.25
  -1   9 -19    6.11    0.98
   1   9  19    6.95    1.27
  -1   9 -20   38.81    2.39
   1   9  20   38.49    2.87
   1   9  21  132.13    6.44
   1  10 -21    1.17    0.41
  -1  10  21    1.19    0.49
  -1  10  20  137.82    7.53
   1  10 -20  147.43    6.92
   1  10 -19   11.73    1.39
   1  10 -18   31.13    2.45
  -1  10  18   22.08    2.25
  -1  10  18   27.23    2.63
  -1  10  17   46.46    3.86
  -1  10  17   43.28    3.64
  -1  10  17   39.95    3.38
   1  10 -17   46.45    3.33
   1  10 -16   32.03    2.71
  -1  10  16   23.76    2.83
  -1  10  16   33.51    3.10
  -1  10  16   24.63    2.71
   1  10 -15  127.65    6.88
  -1  10  15  107.73    7.11
  -1  10  15  122.98    7.32
  -1  10  15  126.01    7.57
  -1  10  14  102.97    6.67
  -1  10  14  112.75    6.76
  -1  10  14   97.57    6.58
  -1  10  13    4.24    1.27
  -1  10  13    3.37    1.22
  -1 -10  12    4.26    2.79
  -1  10  12    6.24    1.48
  -1  10  12    6.80    1.42
  -1  10  12    5.31    2.64
  -1  10  11  105.47    6.95
  -1 -10  11  108.32   12.25
  -1  10  11  114.08    6.75
  -1  10  11  108.10   11.57
  -1  10  10   75.07    5.30
  -1 -10  10   72.21    9.55
   1  10 -10   64.95    4.36
  -1  10  10   67.74    4.71
  -1  10  10   67.82    8.56
  -1  10   9   47.34    3.99
   1  10  -9   40.45    3.14
  -1  10   9   41.66    3.39
  -1  10   9   39.74    6.21
  -1  10   9   48.59    6.14
   1 -10  -8   24.33    2.11
   1  10  -8   26.93    2.33
  -1  10   8   23.04    2.29
  -1  10   8   22.83    4.54
  -1  10   8   23.43    4.16
  -1  10   8   20.30    2.04
  -1 -10   7   13.44    3.87
  -1  10   7    5.65    2.39
  -1  10   7   10.06    1.33
  -1  10   7   13.31    2.98
   1  10  -7   10.86    1.45
   1 -10  -7    7.95    1.20
  -1  10   7   10.24    1.44
   1 -10  -6   11.23    1.39
  -1  10   6   10.72    2.86
  -1  10   6    9.24    1.27
   1  10  -6   11.03    1.43
  -1  10   6    8.68    1.31
   1 -10  -5   10.49    1.32
  -1 -10   5   13.33    3.71
  -1  10   5    7.77    1.17
   1  10  -5    9.40    1.31
  -1  10   5   10.06    1.37
   1 -10  -4  798.21   33.09
  -1 -10   4  867.40   41.74
  -1  10   4  742.92   32.99
   1  10  -4  812.25   33.26
  -1  10   4  768.51   33.12
   1 -10  -3  382.53   16.89
   1  10  -3  384.74   16.99
  -1  10   3  367.02   16.84
  -1 -10   2   48.36    6.40
   1 -10  -2   52.25    3.40
  -1 -10   1    1.01    1.01
  -1 -10   0   69.41    7.31
  -1 -10  -1  180.29   12.24
   1  10   1  179.14   11.39
   1  10   1  153.45   10.10
  -1 -10  -2 1464.29   61.86
   1  10   2 1465.17   61.40
  -1  10  -3   18.57    1.78
   1  10   3   23.32    2.09
   1  10   3   20.83    3.39
   1  10   3   19.34    3.06
  -1  10  -4   44.29    3.02
   1  10   4   43.44    3.18
   1  10   4   40.68    4.77
   1  10   4   47.05    5.30
  -1  10  -5   26.25    2.18
   1  10   5   25.87    2.38
   1  10   5   24.96    3.86
   1  10   5   32.20    4.41
   1  10   6  225.52   15.50
   1  10   6  256.45   16.00
   1  10   6  266.13   12.37
   1  10   6  241.28   11.97
   1  10   6  263.54   11.51
  -1  10  -6  259.68   11.91
  -1  10  -7  103.02    5.55
   1  10   7   95.33    8.90
   1  10   7   95.03    5.84
   1  10   7  115.93    9.33
   1  10   7   91.95    5.62
   1  10   7  100.06    5.20
   1  10   8  212.18    9.93
  -1  10  -8  211.66   10.15
   1  10   8  237.57   10.97
   1  10   8  209.88   10.53
   1  10   8  198.41   10.68
   1  10   9  189.35    9.11
  -1  10  -9  188.22    9.27
   1  10   9  192.24    9.95
   1  10   9  194.24    9.78
   1  10   9  174.47    9.71
  -1  10 -10  319.88   14.56
   1  10  10  287.23   14.88
   1  10  10  333.42   15.23
   1  10  10  322.56   14.47
   1  10  11   27.47    2.70
  -1  10 -11   23.26    2.23
   1  10  12   31.08    2.99
  -1  10 -12   30.47    2.63
   1  10  12   26.83    2.64
  -1  10 -13   78.05    4.89
  -1  10 -14    1.36    0.81
   1  10  14    4.44    1.32
  -1  10 -15  171.07    8.65
   1  10  15  165.34    9.49
  -1  10 -16  106.13    5.86
   1  10  16  101.18    6.58
  -1  10 -17   19.59    1.89
   1  10  17   19.16    2.28
  -1  10 -18    2.10    0.66
   1  10  18    3.08    0.90
   1 -10  18    2.70    0.67
   1  10  19    5.55    1.09
  -1  10 -19    6.92    0.92
   1  10  19    6.03    1.10
   1  10  20   83.00    4.38
  -1  10 -20   68.34    3.59
  -1  11  21  144.61    6.36
   1  11 -21  123.19    5.81
   1  11 -20   39.30    2.39
   1  11 -19   99.66    5.16
   1  11 -18    3.79    0.86
  -1  11  18    3.24    0.98
  -1  11  18    4.20    1.05
  -1  11  17   41.03    3.35
   1  11 -17   54.88    3.47
  -1  11  17   45.60    3.79
  -1  11  17   50.44    3.79
   1  11 -16   10.87    1.53
  -1  11  16    6.38    1.36
  -1  11  16   11.47    1.86
  -1  11  16   11.51    1.79
   1  11 -15   67.59    4.23
  -1  11  15   61.05    4.66
  -1  11  15   53.44    4.38
   1  11 -14   22.90    2.30
  -1  11  14   21.25    2.54
  -1  11  14   19.35    2.45
   1  11 -13  167.75    8.67
  -1  11  13  160.96    9.41
  -1  11  13  170.61    9.33
  -1  11  12   50.64    4.10
   1  11 -12   57.91    3.88
  -1  11  12   55.16    4.26
  -1  11  12   48.17    4.27
   1  11 -11    3.05    0.94
  -1  11  11    4.97    1.36
  -1 -11  11    2.66    2.29
  -1  11  11    4.44    1.18
  -1  11  11    1.51    1.51
   1  11 -10    1.50    0.82
  -1 -11  10    2.63    2.02
  -1  11  10    0.42    0.76
  -1  11  10    0.16    0.63
  -1  11  10    1.44    1.44
   1  11  -9   56.98    3.92
  -1  11   9   56.43    4.64
  -1  11   9   52.50    3.99
  -1  11   9   53.07    6.75
  -1  11   9   53.32    7.52
  -1  11   8    0.99    0.65
   1  11  -8    1.08    0.72
  -1  11   8    1.07    1.38
  -1  11   8   -0.65    1.06
  -1  11   8    0.56    0.61
   1 -11  -7   63.47    3.98
   1  11  -7   61.34    4.09
  -1  11   7   62.47    4.05
  -1  11   7   51.54    7.12
  -1 -11   7   53.93    8.25
  -1  11   7   59.55    4.15
   1 -11  -6  167.12    8.15
   1  11  -6  162.92    8.24
  -1  11   6  151.85   12.81
  -1  11   6  144.62    8.07
  -1 -11   6  162.69   14.67
  -1  11   6  168.80    8.42
   1 -11  -5 2177.31   86.68
   1  11  -5 2134.45   86.90
  -1  11   5 1973.17   93.46
  -1  11   5 2049.62   86.67
  -1 -11   5 2367.49   97.62
  -1  11   5 2071.77   86.76
   1  11  -4    0.79    0.71
  -1  11   4    0.78    0.59
   1 -11  -4    1.19    0.62
  -1  11   4    1.22    0.56
  -1 -11   4    1.35    1.35
   1  11  -3   15.69    1.74
  -1 -11   3   17.72    4.18
  -1  11   3   15.22    1.66
   1  11  -2   24.43    2.23
  -1 -11   2   29.94    5.07
  -1  11   2   22.53    2.08
   1  11  -1   33.49    2.68
  -1 -11   1   27.65    4.83
  -1  11   1   34.60    2.62
  -1  11   0   36.23    2.76
  -1 -11   0   39.48    5.51
   1  11   0   41.28    2.98
   1  11   0   37.07    4.72
  -1  11  -1  556.98   23.31
  -1 -11  -1  602.06   29.09
   1  11   1  535.96   23.43
   1  11   1  569.94   27.83
   1  11   2   49.97    5.70
   1  11   2   43.05    4.71
   1  11   2   48.91    3.42
  -1  11  -2   52.15    3.38
   1  11   3  520.63   25.86
   1  11   3  469.52   20.98
  -1  11  -3  496.89   20.87
   1  11   4   48.02    3.27
  -1  11  -4   55.78    3.52
   1  11   4   54.00    3.70
   1  11   4   44.06    5.24
   1  11   4   50.94    5.90
  -1  11  -5   52.23    3.42
   1  11   5   40.09    5.22
   1  11   5   51.28    6.04
   1  11   5   55.72    3.77
   1  11   5   46.65    3.36
   1  11   6   11.84    1.57
   1  11   6   13.47    1.34
  -1  11  -6   16.18    1.68
   1  11   6   12.70    1.75
   1  11   6   11.33    2.83
   1  11   6   12.27    2.78
   1  11   7  348.02   16.27
  -1  11  -7  376.33   16.07
   1  11   7  336.95   15.54
   1  11   7  389.27   21.53
   1  11   7  361.09   16.60
   1  11   7  326.52   20.60
   1  11   8    2.51    0.91
   1  11   8    2.22    0.65
  -1  11  -8    2.98    0.81
   1  11   8    4.34    1.05
   1  11   8    4.19    1.11
   1  11   9    2.48    0.98
   1  11   9    3.52    0.83
  -1  11  -9    2.40    0.78
   1  11   9    2.62    0.99
  -1  11 -10   55.15    3.70
   1  11  10   52.22    4.03
   1  11  10   49.25    3.95
   1  11  10   51.52    4.15
   1  11  11   28.49    2.72
   1  11  11   28.15    2.86
  -1  11 -11   26.25    2.49
   1  11  12    5.28    1.29
  -1  11 -12    3.75    1.05
  -1  11 -13  140.11    7.38
   1  11  13  135.44    8.01
  -1  11 -14   39.48    3.06
   1  11  14   41.78    3.61
   1  11  15   11.49    1.81
  -1  11 -15    8.21    1.33
   1  11  16    2.45    0.96
  -1  11 -16    1.59    0.69
   1  11  17  102.85    6.07
  -1  11 -17   97.34    5.28
   1 -11  18   25.42    1.99
  -1  11 -18   28.44    2.03
   1  11  19   50.97    3.36
  -1  11 -19   46.25    2.67
   1  11  20   95.72    5.01
  -1  12  20   45.21    2.78
   1  12 -20   38.40    2.24
  -1  12  19    0.20    0.34
   1  12 -19    0.30    0.39
  -1  12  18    1.70    0.68
   1  12 -18    2.80    0.69
  -1  12  17   88.89    4.13
   1  12 -17   98.62    3.56
  -1  12  17   89.35    4.20
   1  12 -16    8.57    1.28
  -1  12  16    6.88    1.34
  -1  12  16    6.59    1.30
   1  12 -15  274.46   12.09
  -1  12  15  252.97   12.67
   1  12 -14    5.09    1.17
  -1  12  14    5.81    1.36
  -1  12  14    4.40    1.23
  -1  12  14    3.19    1.08
  -1  12  13   32.34    3.11
  -1  12  13   27.89    3.06
  -1  12  13   28.24    2.88
   1  12 -13   29.68    2.65
  -1  12  12  132.03    7.78
   1  12 -12  130.45    7.14
  -1  12  12  126.42    7.61
  -1  12  12  137.44    8.20
   1  12 -11  215.87   10.37
  -1  12  11  207.89   10.92
  -1  12  11  194.13   11.27
  -1  12  11  174.57   15.87
  -1  12  11  215.13   10.94
   1  12 -10   28.20    2.54
  -1  12  10   23.70    5.10
  -1  12  10   27.20    3.15
  -1  12  10   25.27    2.68
   1  12  -9    1.38    0.80
  -1  12   9    0.59    0.69
  -1  12   9    2.14    1.43
  -1  12   9    2.91    1.24
  -1  12   9    0.77    0.69
   1  12  -8   38.68    3.12
  -1  12   8   36.77    6.13
  -1  12   8   36.70    3.06
  -1 -12   8   43.57    7.41
  -1  12   8   38.25    3.26
   1  12  -7    9.18    1.41
  -1  12   7    9.01    1.40
  -1  12   7    5.87    2.74
  -1 -12   7    9.25    3.52
  -1  12   7    8.58    1.47
   1  12  -6    3.34    0.94
  -1  12   6    4.18    0.98
  -1  12   6    1.87    1.62
  -1 -12   6    5.62    2.78
  -1  12   6    7.88    1.32
   1  12  -5  203.76    9.81
  -1  12   5  186.23   14.72
  -1  12   5  192.61    9.72
  -1 -12   5  216.95   17.07
  -1  12   5  182.94    9.62
   1  12  -4  361.24   16.54
  -1  12   4  380.93   22.26
  -1  12   4  345.16   16.40
   1  12  -3   19.18    1.99
  -1  12   3   13.25    1.68
  -1  12   3   17.76    3.93
  -1 -12   3   19.52    4.44
   1  12  -2   19.69    2.04
  -1  12   2   17.47    1.88
  -1 -12   2   17.63    4.05
   1  12  -1   11.04    1.49
   1  12  -1    7.28    2.30
  -1  12   1    8.19    1.28
  -1 -12   1   10.49    3.10
   1  12   0  437.36   23.80
  -1  12   0  425.75   19.27
   1  12   0  436.84   19.48
  -1 -12   0  452.26   25.39
   1  12   1    4.87    1.85
  -1  12  -1    5.60    1.07
   1  12   1    3.54    0.92
   1  12   2  834.27   35.90
   1  12   2  814.25   40.66
  -1  12  -2  853.94   35.72
   1  12   3   61.87    7.01
   1  12   3   71.93    4.67
  -1  12  -3   75.01    4.47
   1  12   4   36.66    2.96
   1  12   4   31.23    4.88
   1  12   4   30.79    2.49
  -1  12  -4   37.58    2.78
   1  12   5   57.85    4.07
   1  12   5   56.97    6.75
   1  12   5   57.61    3.82
  -1  12  -5   60.74    3.88
   1  12   6   67.53    4.49
  -1  12  -6   77.77    4.56
   1  12   6   73.88    4.88
   1  12   6   69.64    7.68
   1  12   7    5.63    0.91
  -1  12  -7    5.04    1.07
   1  12   7    6.41    1.35
   1  12   7    5.60    1.15
   1  12   8   88.80    5.81
  -1  12  -8   92.10    5.33
   1  12   8   85.76    5.92
   1  12   8   85.67    5.55
   1  12   8  100.47    5.13
  -1  12  -9  328.31   14.58
   1  12   9  297.46   15.20
   1  12   9  315.76   15.06
   1  12   9  309.61   15.23
  -1  12 -10   43.97    3.20
   1  12  10   44.04    3.62
   1  12  10   39.98    3.47
   1  12  10   37.26    3.51
  -1  12 -11   12.55    1.60
   1  12  11   11.85    1.73
   1  12  11   13.28    2.01
   1  12  11   11.22    1.80
  -1  12 -12   79.49    4.81
   1  12  12   76.10    5.41
   1  12  12   79.02    5.36
  -1  12 -13  220.42   10.41
   1  12  13  203.54   11.01
  -1  12 -14   59.51    3.78
   1  12  14   54.26    4.22
  -1  12 -15   10.96    1.41
   1  12  16   52.86    3.93
  -1  12 -16   53.51    3.35
  -1  12 -17    1.34    0.56
   1 -12  18    6.84    0.87
  -1  12 -18    7.67    0.89
   1  12  19   30.71    2.30
   1  13 -19    0.36    0.31
   1  13 -18   16.00    1.40
   1  13 -17   10.49    1.25
  -1  13  17   13.66    1.61
   1  13 -16  137.94    4.14
  -1  13  16  121.10    4.70
   1  13 -15  222.46   10.01
  -1  13  15  187.36   10.24
  -1  13  15  198.40   10.43
  -1  13  15  219.27   10.69
   1  13 -14  103.70    5.52
  -1  13  14   83.10    5.75
  -1  13  14   93.78    5.87
  -1  13  14   95.82    6.02
   1  13 -13    4.35    1.04
  -1  13  13    4.54    1.22
  -1  13  13    3.31    1.12
  -1  13  13    3.47    1.17
   1  13 -12  368.39   16.29
  -1  13  12  336.18   17.22
  -1  13  12  343.23   16.74
  -1  13  12  366.69   17.02
   1  13 -11  170.28    8.38
  -1  13  11  161.51    9.47
  -1  13  11  155.10    8.65
  -1  13  11  142.49   13.55
  -1  13  11  149.15    8.72
  -1  13  10    1.82    1.15
  -1  13  10    1.42    0.82
   1  13 -10    2.38    0.93
  -1  13  10    2.48    1.01
  -1  13  10    0.73    0.85
   1  13  -9  171.81    8.50
  -1  13   9  163.28    8.79
  -1  13   9  150.20    9.54
   1  13  -8   84.94    5.05
  -1  13   8   78.85    5.18
  -1 -13   8   66.39    9.79
  -1  13   8   83.00    5.20
   1  13  -7   93.24    5.54
  -1  13   7   92.59    5.68
  -1  13   7   91.65    5.62
  -1  13   7   76.06    9.07
  -1 -13   7   98.37   11.65
   1  13  -6   33.70    2.88
  -1  13   6   37.75    5.86
  -1  13   6   25.77    4.89
  -1  13   6   32.09    2.88
  -1 -13   6   39.30    6.95
   1  13  -5  107.12    6.19
  -1  13   5  116.04   10.79
  -1  13   5  106.05    6.22
  -1 -13   5  126.63   12.58
   1  13  -4    1.99    0.84
  -1  13   4    1.94    0.86
  -1  13   4    1.20    0.98
  -1  13   4    4.23    1.85
  -1 -13   4    2.26    1.95
   1  13  -3  261.21   12.67
  -1  13   3  261.57   12.61
  -1  13   3  252.29   17.84
  -1 -13   3  275.84   19.58
  -1  13   2    0.39    0.50
   1  13  -2    0.68    0.63
  -1  13   2    2.94    1.79
   1  13  -2    0.46    0.75
  -1 -13   2    1.99    1.71
  -1  13   1  134.54    7.16
   1  13  -1  132.09    7.26
   1  13  -1  112.62   10.10
   1  13   0    2.86    1.57
   1  13   0    3.48    0.97
  -1  13   0    3.60    0.94
   1  13   1    1.96    1.50
   1  13   1    2.11    0.80
  -1  13  -1    3.17    0.84
   1  13   2  244.58   16.81
   1  13   2  263.85   12.77
  -1  13  -2  264.27   12.45
   1  13   3   22.63    2.45
   1  13   3   29.65    4.81
  -1  13  -3   29.82    2.49
   1  13   4   57.72    6.99
   1  13   4   55.73    4.16
  -1  13  -4   60.98    3.95
   1  13   5  185.13    9.86
   1  13   5  217.45   10.64
   1  13   5  192.80   14.71
  -1  13  -5  228.92   10.29
   1  13   6   82.84    5.34
  -1  13  -6  101.67    5.55
   1  13   6   86.62    9.11
   1  13   6  105.05    5.99
  -1  13  -7    8.55    1.32
   1  13   7    9.35    1.54
   1  13   7    8.88    1.44
  -1  13  -8    0.81    0.64
   1  13   8    2.04    0.91
   1  13   8    1.14    0.66
  -1  13  -9  152.73    7.83
   1  13   9  139.17    8.37
   1  13   9  151.84    8.24
   1  13   9  155.14    8.51
  -1  13 -10  460.36   19.57
   1  13  10  406.70   19.98
   1  13  10  433.01   20.29
   1  13  10  447.38   20.15
   1  13  11  269.55   13.66
   1  13  11  270.81   13.54
  -1  13 -11  284.96   12.94
   1  13  12   45.70    3.69
   1  13  12   37.18    3.34
  -1  13 -12   39.89    3.01
  -1  13 -13    1.43    0.73
   1  13  13    1.54    0.80
   1  13  13    2.56    0.98
  -1  13 -14  205.32    9.75
  -1  13 -15  338.44   14.97
  -1  13 -16   63.93    3.62
  -1  13 -17    1.43    0.46
   1  13  17    2.01    0.79
   1 -13  17    1.85    0.58
  -1  13 -18   42.51    2.37
   1 -13  18   42.59    2.48
   1  14 -18   78.01    3.85
   1  14 -17    1.69    0.49
  -1  14  16   16.55    1.79
   1  14 -16   15.04    1.46
   1  14 -15   66.63    2.85
  -1  14  15   64.90    3.46
   1  14 -14    2.29    0.78
  -1  14  14    1.95    0.80
  -1  14  14    3.20    1.03
  -1  14  14    3.33    0.93
   1  14 -13   69.23    4.21
  -1  14  13   60.35    4.63
  -1  14  13   67.97    4.52
  -1  14  13   71.83    4.73
   1  14 -12  166.32    8.02
  -1  14  12  140.47    8.66
  -1  14  12  153.84    8.33
  -1  14  12  152.23    8.46
   1  14 -11   48.78    3.44
  -1  14  11   39.81    3.93
  -1  14  11   44.68    3.59
  -1  14  11   48.84    3.80
   1  14 -10    7.62    1.36
  -1  14  10    7.89    1.46
  -1  14  10    5.60    1.60
  -1  14  10    5.87    1.25
  -1  14   9  222.00   11.37
  -1  14   9  217.20   12.47
   1  14  -9  236.92   11.17
  -1  14   8  331.45   15.88
  -1  14   8  320.52   21.79
  -1  14   8  318.03   15.79
   1  14  -8  370.70   15.83
  -1  14   7  229.23   17.91
  -1  14   7  258.73   12.80
   1  14  -7  274.05   12.69
  -1  14   6  224.98   17.38
  -1  14   6  242.80   11.99
   1  14  -6  244.17   11.84
  -1  14   5   15.93    2.02
  -1  14   5   14.37    3.83
   1  14  -5   20.16    2.17
  -1  14   4   36.94    3.16
  -1  14   4   31.60    5.58
   1  14  -4   36.67    5.08
   1  14  -4   40.30    3.22
  -1  14   3   16.59    1.99
  -1  14   3   15.82    3.99
   1  14  -3   15.48    3.18
   1  14  -3   15.69    1.97
   1  14  -2   23.14    4.22
  -1  14   2   31.89    2.81
   1  14  -2   29.03    2.78
  -1  14   2   28.77    5.24
   1  14  -1    5.44    1.91
  -1  14   1    6.80    2.59
   1  14  -1    7.53    1.40
  -1  14   1    6.24    1.22
   1  14   0  317.82   14.71
  -1  14   0  308.45   14.36
   1  14   1    1.06    1.06
  -1  14  -1    3.37    0.96
   1  14   1    2.14    0.97
   1  14   2   81.58    5.36
   1  14   2   68.15    7.94
  -1  14  -2   85.32    5.10
   1  14   3   17.13    2.13
  -1  14  -3   15.70    1.83
   1  14   4  205.02   10.56
  -1  14  -4  210.15   10.14
   1  14   5  338.40   15.67
  -1  14  -5  329.68   15.11
   1  14   6    4.72    0.96
   1  14   6    4.38    1.21
  -1  14  -6    4.12    1.01
   1  14   7  239.63   12.05
   1  14   7  268.88   12.68
   1  14   7  224.47   12.89
  -1  14  -7  277.76   12.20
   1  14   8  140.40    8.61
  -1  14  -8  162.78    7.99
   1  14   8  151.66    8.11
   1  14   9   10.29    1.57
   1  14   9   13.04    1.90
  -1  14  -9   11.48    1.52
   1  14  10   57.46    4.28
   1  14  10   63.79    4.40
  -1  14 -10   66.81    4.10
   1  14  11    3.02    0.97
  -1  14 -11    2.80    0.86
   1  14  12   73.58    4.88
  -1  14 -12   76.20    4.44
  -1  14 -13   75.45    4.33
  -1  14 -14  180.10    8.52
  -1  14 -15   56.11    3.26
   1  14  16   44.80    3.09
  -1  14 -16   38.78    2.41
   1 -14  17  120.27    5.76
  -1  14 -17  114.93    5.47
   1  15 -17    2.22    0.46
   1  15 -16    2.79    0.61
   1  15 -15   44.05    2.80
  -1  15  15   47.50    3.20
  -1  15  14    1.83    0.72
  -1  15  14    0.32    0.22
   1  15 -14    1.62    0.65
  -1  15  13  104.85    5.94
   1  15 -13  112.33    5.62
  -1  15  12   42.10    3.67
   1  15 -12   52.49    3.34
  -1  15  12   46.56    3.52
  -1  15  11    9.56    1.50
   1  15 -11    9.05    1.34
  -1  15  11    7.32    1.51
  -1  15  10  177.00    9.36
   1  15 -10  194.42    9.20
  -1  15  10  171.97   10.20
  -1  15   9   30.60    2.70
   1  15  -9   27.74    2.51
  -1  15   9   25.51    3.13
  -1  15   8  136.87    7.49
  -1  15   8  137.86    8.88
  -1  15   8  161.77   13.25
   1  15  -8  140.23    7.49
  -1  15   7    3.98    1.88
  -1  15   7    0.12    0.51
  -1  15   7    1.90    0.90
   1  15  -7    3.73    1.04
  -1  15   6   40.70    3.27
  -1  15   6   34.79    5.91
  -1  15   6   30.68    2.71
   1  15  -6   40.75    3.18
  -1  15   5   14.04    3.73
  -1  15   5    9.71    1.30
  -1  15   5   11.31    1.66
   1  15  -5   10.18    1.61
  -1  15   4   91.02    9.98
   1  15  -4  104.68    6.06
  -1  15   4   96.65    6.01
   1  15  -3    1.85    1.07
  -1  15   3    1.31    1.31
  -1  15   3    0.74    0.73
   1  15  -3    2.04    0.92
  -1  15   2  107.66   10.95
   1  15  -2   93.06    9.24
   1  15  -2  122.01    6.85
  -1  15   2  119.21    6.75
   1  15  -1  787.84   32.59
  -1  15   1  770.92   32.34
  -1  15   1  686.14   38.77
   1  15   0  144.11   12.12
  -1  15   0  147.08   13.03
   1  15   0  159.77    8.72
  -1  15   0  168.78    8.58
  -1  15  -1  133.87    7.26
   1  15   1  136.25    7.63
   1  15   2    7.21    2.52
  -1  15  -2   11.53    1.63
   1  15   2   12.40    1.83
   1  15   3  171.67    8.94
  -1  15  -3  165.58    8.39
   1  15   4   22.96    4.29
  -1  15  -4   22.68    2.25
   1  15   4   23.29    2.54
   1  15   5  269.78   13.03
  -1  15  -5  264.44   12.45
   1  15   6  466.52   21.54
  -1  15  -6  480.71   21.03
   1  15   7   77.02    4.94
   1  15   7   99.44    5.83
   1  15   7   78.72    5.85
  -1  15  -7  102.47    5.39
   1  15   8  201.15   11.59
   1  15   8  227.54   11.05
   1  15   9    0.12    0.46
   1  15   9    0.30    0.52
  -1  15  -9    0.52    0.57
  -1  15 -10   12.65    1.51
   1  15  10   12.16    1.59
  -1  15 -11   -0.09    0.53
  -1  15 -12    1.45    0.60
  -1  15 -13   92.19    4.85
  -1  15 -14    4.29    0.74
  -1  15 -15  103.35    5.06
   1  15  15  108.93    5.66
   1 -15  16  111.41    5.05
   1  15  16  113.49    5.26
   1  16 -16   64.31    3.23
   1  16 -15    2.77    0.56
   1  16 -14   29.39    2.08
   1  16 -13    8.07    1.01
  -1  16  13    6.47    0.99
  -1  16  12    0.26    0.48
   1  16 -12    0.60    0.57
  -1  16  12    0.51    0.48
  -1  16  11    4.58    1.23
  -1  16  11    7.63    1.20
   1  16 -11    7.98    1.20
   1  16 -10  152.96    7.34
  -1  16  10  137.26    8.18
  -1  16  10  132.15    7.23
  -1  16   9    8.60    1.78
  -1  16   9    5.97    1.08
   1  16  -9    9.33    1.35
  -1  16   8  225.24   11.54
  -1  16   8  237.32   13.21
  -1  16   7   49.14    3.49
  -1  16   7   57.66    4.05
  -1  16   7   57.17    4.97
   1  16  -7   65.60    4.08
  -1  16   6    3.51    1.02
   1  16  -6    3.56    1.04
  -1  16   5   29.87    5.26
   1  16  -5   30.55    2.70
  -1  16   5   25.33    2.55
   1  16  -4   16.91    2.06
  -1  16   4   20.08    4.23
  -1  16   4   20.37    2.23
  -1  16   3  135.40   12.66
  -1  16   3  147.83    8.23
   1  16  -3  166.17    8.44
   1  16  -2  805.65   33.20
  -1  16   2  753.01   32.95
   1  16  -1   42.21    3.37
  -1  16   1   32.39    2.96
  -1  16   1   28.82    5.21
   1  16   0  116.75   10.38
  -1  16   0  130.76    7.20
   1  16   0  133.52    7.48
  -1  16   0  120.68   11.34
  -1  16  -1   53.27    3.82
  -1  16  -1   44.54    6.24
   1  16   1   57.87    4.19
   1  16   1   49.10    6.22
   1  16   2   26.79    4.61
  -1  16  -2   37.90    5.58
   1  16   2   33.54    3.10
  -1  16  -2   32.33    2.78
  -1  16  -3   48.37    3.46
   1  16   3   50.91    3.87
  -1  16  -3   35.71    5.50
   1  16   3   38.14    5.58
  -1  16  -4   12.46    1.60
   1  16   4   11.88    1.77
  -1  16  -5  132.66    6.98
   1  16   5  126.69    7.38
   1  16   6    3.42    1.15
   1  16   6    4.07    1.15
  -1  16  -6    5.30    1.09
   1  16   7    3.75    1.17
  -1  16  -7    7.62    1.19
   1  16   8    0.88    0.59
  -1  16  -8    1.91    0.70
  -1  16  -9    4.15    0.88
  -1  16 -10  212.90    9.96
  -1  16 -11    2.47    0.68
  -1  16 -12    3.88    0.76
  -1  16 -13    0.18    0.39
   1  16  13    0.49    0.40
  -1  16 -14   21.75    1.28
   1  16  14    2.40    0.59
   1  17 -15   39.27    2.14
   1  17 -14    2.42    0.55
   1  17 -13    1.66    0.52
   1  17 -12    0.55    0.45
  -1  17  11    5.88    1.09
  -1  17  11    0.14    0.19
   1  17 -10    3.99    0.82
  -1  17  10    4.47    1.08
   1  17  -9    1.42    0.67
  -1  17   9    0.84    0.75
  -1  17   9    0.38    0.20
  -1  17   8  136.99    8.85
   1  17  -8  177.35    8.19
  -1  17   7    1.67    0.99
   1  17  -7    2.17    0.81
   1  17  -6  349.17   15.08
  -1  17   6  304.15   14.98
  -1  17   5   62.62    4.14
   1  17  -5   58.07    4.01
  -1  17   4    2.34    0.89
   1  17  -4    1.01    0.77
   1  17  -3   50.76    3.74
  -1  17   3   50.16    3.68
  -1  17   2    6.15    1.23
   1  17  -2    4.26    1.12
  -1  17   1  169.47    8.95
   1  17  -1  181.91    9.26
   1  17   0  159.56    8.36
  -1  17   0  146.10    7.95
   1 -17   1   11.54    1.72
  -1  17  -1   14.56    1.79
   1  17   2    0.15    0.83
  -1  17  -2    1.30    0.76
   1  17   3   82.64    5.26
  -1  17  -3   78.70    4.80
   1  17   4  402.23   17.93
  -1  17  -4  375.39   17.27
  -1  17  -5  178.23    8.73
   1  17   5  196.39    9.40
  -1  17  -6  134.63    6.78
   1  17   6  134.76    7.25
   1  17   6  117.57    7.31
  -1  17  -7   63.88    2.92
   1  17   7    0.40    0.27
  -1  17  -8   12.12    1.39
  -1  17  -9   55.43    3.37
  -1  17 -10    0.43    0.43
  -1  17 -11   60.75    3.39
  -1  17 -12   20.53    1.55
  -1  17 -13    5.55    0.68
   1 -17  14    4.58    0.68
   1  18 -13    0.84    0.33
   1  18 -12  146.18    6.70
   1  18 -11    5.43    0.79
  -1  18  10    0.48    0.25
   1  18 -10  138.29    3.65
  -1  18   9   36.28    3.10
   1  18  -9   49.99    2.93
  -1  18   8  160.90    9.17
   1  18  -8  189.24    8.56
  -1  18   7   56.94    4.53
   1  18  -7   69.44    3.96
  -1  18   6   39.39    3.69
   1  18  -6   44.96    3.05
  -1  18   5   33.08    2.66
   1  18  -5   36.35    2.73
   1  18  -4   62.54    4.00
  -1  18   4   60.35    3.94
  -1  18   3    2.56    0.80
   1  18  -3    2.33    0.88
  -1  18   2    8.29    1.26
   1  18  -2    8.41    1.37
  -1  18   1    0.89    0.66
   1  18  -1    0.13    0.68
  -1  18   0  184.31    9.19
   1  18   0  188.96    9.48
   1  18   1    7.36    1.34
  -1  18  -1    4.31    1.01
   1 -18   2    0.56    0.60
   1  18   2    0.39    0.70
  -1  18  -2    1.35    0.71
   1 -18   3   44.69    3.34
   1  18   3   52.94    3.64
  -1  18  -3   46.98    3.23
  -1  18  -4  111.67    5.75
   1  18   4  113.52    6.14
  -1  18  -5   65.81    2.88
   1  18   5   67.24    3.37
  -1  18  -6   13.41    1.45
  -1  18  -7   15.91    1.52
  -1  18  -8   13.40    1.32
  -1  18  -9    8.96    1.03
  -1  18 -10   30.33    1.98
  -1  18 -11   17.82    1.32
   1 -18  12  470.42   20.01
   1 -18  12  483.75   20.27
   1  19 -11    1.58    0.40
   1  19 -10    1.24    0.40
   1  19  -9    1.73    0.52
  -1  19   8    0.09    0.26
   1  19  -8   31.17    1.72
  -1  19   7   51.02    3.73
   1  19  -7   64.10    3.47
  -1  19   6   10.93    1.60
   1  19  -6   11.81    1.30
  -1  19   5   60.55    4.54
   1  19  -5   73.97    4.06
  -1  19   4    0.17    0.49
   1  19  -4    0.54    0.56
  -1  19   3  256.15   11.98
   1  19  -3  272.44   12.18
   1  19  -2   43.88    2.98
  -1  19   2   38.47    2.77
   1  19  -1    5.69    1.08
  -1  19   1    5.85    0.98
  -1  19   0    7.29    1.08
   1  19   0    7.22    1.18
   1  19   1   52.40    3.53
  -1  19  -1   55.46    3.40
  -1  19  -2    4.34    0.84
   1  19   2    4.51    0.98
  -1  19  -3   31.25    1.93
   1  19   3   33.86    2.21
  -1  19  -4  103.57    5.31
   1  19   4  106.36    5.66
   1 -19   4  101.53    5.41
  -1  19  -5  363.49   15.23
   1 -19   5  332.68   15.35
   1 -19   6    1.58    0.63
  -1  19  -6    1.03    0.46
   1 -19   7   58.37    3.39
  -1  19  -7   58.34    3.11
   1 -19   7   49.19    2.95
   1 -19   8    0.75    0.50
  -1  19  -8    1.01    0.38
   1 -19   8    0.99    0.40
  -1  19  -9    0.67    0.30
   1 -19   9    0.95    0.37
   1 -19  10    9.97    1.04
   1  20  -9   16.93    1.18
   1  20  -8  102.01    4.80
   1  20  -7  246.15   10.72
  -1  20   6    0.22    0.15
   1  20  -6   36.39    1.73
  -1  20   5   72.11    4.47
   1  20  -5   88.71    4.29
  -1  20   4   25.86    2.36
   1  20  -4   35.41    2.22
  -1  20   3   15.15    1.84
   1  20  -3   21.74    1.67
  -1  20   2   76.73    4.01
   1  20  -2   74.95    4.11
   1  20  -1    9.24    1.12
  -1  20   1    8.96    1.02
  -1  20   0    5.29    0.81
   1  20   0    4.31    0.79
   1  20   1   57.69    3.34
  -1  20  -1   54.32    3.11
   1  20   2    6.11    0.91
  -1  20  -2    4.86    0.74
  -1  20  -3   22.97    1.66
  -1  20  -4   40.68    2.39
  -1  20  -5  153.00    6.91
  -1  20  -6   14.82    1.14
   1  21  -5    5.19    0.59
   1  21  -4   10.85    0.92
   1  21  -3    3.98    0.55
   1  21  -2   76.20    3.55
  -1  21   2   61.47    3.64
   1  21  -1  390.69   14.92
  -1  21   1  303.85   15.03
   1  21   0   76.93    3.58
  -1  21   0   59.46    3.73
  -1  21  -1   51.12    2.61
  -2   0  24   16.26    1.63
  -2   0  24   15.64    1.70
  -2   0  23    0.25    0.67
  -2   0  23    0.87    0.73
  -2   0  22    3.79    1.31
  -2   0  22    3.02    1.04
  -2   0  22    2.45    0.69
  -2   0  21   -0.21    1.06
  -2   0  21    0.19    0.89
  -2   0  21    0.11    0.49
  -2   0  21    0.88    0.82
  -2   0  20  567.70   24.68
  -2   0  20  559.27   25.95
  -2   0  19    0.76    0.67
  -2   0  19    0.48    0.79
  -2   0  19    0.64    0.78
  -2   0  18   75.50    7.79
  -2   0  18   78.66    4.90
  -2   0  18   73.53    5.70
  -2   0  17   -0.48    1.10
  -2   0  17    0.21    0.72
  -2   0  16   27.81    4.38
  -2   0  16   21.07    3.28
  -2   0  16   23.66    2.82
  -2   0  15    1.63    1.00
  -2   0  15    0.72    0.81
  -2   0  15    1.58    1.36
  -2   0  15    0.42    1.09
  -2   0  14    3.13    1.31
  -2   0  14    3.28    1.05
  -2   0  14    6.33    2.25
  -2   0  14    3.47    1.48
  -2   0  13    0.29    0.76
  -2   0  13    0.35    0.99
  -2   0  13    1.03    0.64
  -2   0  12  582.31   26.82
  -2   0  12  554.75   24.45
  -2   0  11    0.30    0.76
  -2   0  10  568.26   28.24
  -2   0   9    1.08    0.83
  -2   0   9   -0.30    0.99
  -2   0   8   63.37    5.46
  -2   0   7    0.44    0.62
  -2   0   6   17.05    2.25
  -2   0   5    1.24    0.62
  -2   0   4  503.71   21.06
   2   0  -3    1.21    0.96
  -2   0   3    0.82    0.26
   2   0  -2 3729.29  152.18
   2   0  -1    0.49    0.67
   2   0   0  345.51   15.99
   2   0   1   -0.14    0.68
   2   0   2  504.38   22.86
   2   0   3    0.52    0.47
   2   0   4   27.41    2.35
   2   0   4   24.63    2.32
   2   0   5    0.88    0.59
   2   0   6  737.49   32.48
   2   0   7    0.61    0.62
   2   0   7    1.07    0.36
   2   0   8  820.64   35.42
   2   0   8  774.74   32.53
   2   0   9    1.06    0.81
   2   0   9    0.07    0.33
   2   0  10 1569.60   64.02
   2   0  10 1436.18   60.10
   2   0  11    0.71    0.71
   2   0  11    0.79    0.73
   2   0  11    0.34    0.87
   2   0  11   -0.44    0.46
   2   0  12  478.61   23.17
   2   0  12  480.66   22.85
   2   0  12  540.93   26.16
   2   0  12  515.75   21.82
   2   0  13   -0.22    0.79
   2   0  13    0.19    0.69
   2   0  13    1.22    1.05
   2   0  13    1.07    0.63
   2   0  14  133.26    8.59
   2   0  14  138.68    8.39
   2   0  14  140.18    7.70
   2   0  14  132.87   10.59
   2   0  14  137.25    7.25
   2   0  15    0.49    0.98
   2   0  15    0.47    0.60
   2   0  15    0.21    0.78
   2   0  15    0.47    0.77
   2   0  15    0.61    0.65
   2   0  16  163.16   10.10
   2   0  16  178.09    9.48
   2   0  16  184.29   10.76
   2   0  17    0.92    0.73
   2   0  17   -0.22    1.10
   2   0  17    2.08    1.70
   2   0  17   -0.25    1.12
   2   0  18   24.71    2.41
   2   0  18   20.40    2.73
   2   0  18   19.34    2.89
   2   0  19   -0.19    0.85
   2   0  19   -0.22    1.03
   2   0  20   24.02    2.88
   2   0  21    0.49    0.80
   2   0  22  212.58   10.47
   2   0  23    0.07    0.40
  -2  -1  24    0.09    0.43
  -2  -1  24    0.61    0.49
  -2  -1  23    5.51    1.17
  -2  -1  23    5.74    1.19
  -2  -1  22   62.72    4.72
  -2  -1  22   67.30    4.59
  -2   1  22   63.60    4.37
  -2   1  22   58.28    3.73
  -2   1  21   10.35    1.41
  -2  -1  21   14.78    2.34
  -2   1  21    8.52    1.72
  -2  -1  21   10.23    1.91
  -2   1  20  298.91   13.90
  -2  -1  20  302.45   15.14
  -2   1  20  291.83   14.98
  -2   1  19   47.16    3.46
  -2  -1  19   49.81    4.37
  -2   1  19   41.79    4.06
  -2   1  19   39.08    5.57
  -2   1  18   19.71    2.12
  -2  -1  18   17.11    2.51
  -2   1  18   18.21    2.52
  -2   1  18   21.69    3.97
  -2   1  17   34.18    3.48
  -2  -1  17   32.39    3.43
  -2   1  17   29.59    4.70
  -2   1  16   39.65    4.88
  -2  -1  16   39.71    4.39
  -2  -1  16   42.87    3.93
  -2   1  16   46.82    4.03
  -2   1  16   45.38    5.77
  -2   1  15  239.17   15.42
  -2  -1  15  246.05   14.69
  -2  -1  15  284.51   13.81
  -2   1  15  275.02   13.64
  -2   1  15  302.28   17.28
  -2  -1  15  275.15   17.70
  -2   1  14    1.72    1.25
  -2  -1  14    1.70    1.09
  -2   1  14    0.49    0.65
  -2  -1  14    0.17    0.54
  -2   1  14    0.79    1.01
  -2  -1  14    1.41    1.21
  -2   1  14    0.77    0.49
  -2  -1  13   38.43    4.11
  -2   1  13   37.58    4.43
  -2  -1  13   48.24    5.60
  -2  -1  13   36.11    4.67
  -2   1  13   47.54    5.08
  -2  -1  13   34.70    3.13
  -2   1  13   35.14    3.16
  -2  -1  12  179.45   12.79
  -2   1  12  193.53   10.03
  -2   1  12  235.14   13.10
  -2   1  12  209.65   12.38
  -2  -1  12  192.68   11.56
  -2  -1  12  203.58   13.12
  -2   1  12  220.41   13.71
  -2   1  11  125.07    8.58
  -2   1  11  119.85    9.65
  -2  -1  11  109.06    8.56
  -2   1  11  108.53    8.67
  -2   1  10  206.94   13.30
  -2   1  10  208.05   12.59
  -2   1   9  385.09   19.83
  -2   1   9  403.96   20.76
  -2   1   8  441.86   20.77
  -2  -1   8  401.08   20.53
  -2   1   8  422.99   21.20
  -2  -1   7  263.37   13.77
  -2   1   7  273.19   14.36
  -2   1   6   25.56    2.92
  -2   1   6   23.67    2.09
  -2  -1   6   22.06    2.50
  -2   1   5 1066.32   45.28
  -2  -1   5 1129.80   46.14
  -2  -1   4   21.87    1.99
  -2   1   4   20.80    1.70
   2  -1  -3 2604.86  107.24
   2  -1  -2    9.33    1.51
   2  -1  -1 1275.69   53.31
   2  -1   0   38.48    3.10
   2  -1   1  372.26   17.43
   2  -1   1  355.52   16.76
   2  -1   2  240.34   12.56
   2  -1   2  240.19   12.05
   2   1   3   30.09    2.42
   2   1   4 2674.24  105.75
   2   1   4 2491.67  105.50
   2   1   5  100.71    6.10
   2   1   6  648.65   28.88
   2   1   7  155.21    9.14
   2   1   7  157.93    7.19
   2   1   8   19.61    2.63
   2   1   8   14.65    1.30
   2   1   9   33.48    3.77
   2   1   9   29.96    2.12
   2   1  10    1.51    1.05
   2   1  10    2.24    0.60
   2  -1  11  227.20   12.13
   2  -1  11  218.73   11.77
   2   1  11  248.10   11.07
   2   1  12  256.83   11.54
   2  -1  12  242.59   12.78
   2  -1  12  249.69   12.55
   2  -1  12  243.07   11.80
   2   1  12  261.94   15.29
   2  -1  12  231.46   11.85
   2   1  13   64.78    4.07
   2  -1  13   60.79    5.00
   2  -1  13   69.90    4.48
   2  -1  13   65.83    4.92
   2   1  13   69.82    6.87
   2  -1  13   58.54    4.31
   2   1  14   30.83    2.56
   2  -1  14   26.90    3.23
   2  -1  14   29.34    2.72
   2  -1  14   30.01    3.21
   2   1  14   24.69    4.11
   2  -1  14   26.40    2.72
   2  -1  15  115.21    7.74
   2  -1  15  112.22    7.40
   2  -1  15  109.69    6.61
   2   1  15  109.61    6.75
   2   1  15  123.52   10.15
   2   1  15  115.78    6.44
   2   1  16  154.90    8.44
   2  -1  16  154.21    8.25
   2  -1  16  137.15    8.87
   2  -1  16  146.09    9.31
   2  -1  16  144.08   15.72
   2  -1  17  335.58   16.70
   2   1  17  332.58   15.88
   2  -1  17  322.46   16.97
   2  -1  17  338.64   25.63
   2   1  18   44.25    3.51
   2  -1  18   40.95    3.91
   2  -1  18   36.88    4.06
   2  -1  19  161.15    9.18
   2   1  19  162.68    8.42
   2  -1  19  159.24    9.53
   2  -1  20    0.38    0.91
   2  -1  21    3.17    1.16
   2  -1  22    1.18    0.68
  -2  -2  24   24.23    1.97
  -2   2  24   23.81    2.03
  -2  -2  24   25.94    2.16
  -2   2  24   25.48    2.20
  -2   2  23    3.15    0.91
  -2  -2  23    4.39    1.01
  -2  -2  23    4.36    1.10
  -2   2  23    3.75    1.08
  -2   2  22    0.91    0.98
  -2  -2  22    1.51    0.89
  -2   2  22    0.28    0.68
  -2   2  22    1.46    0.56
  -2  -2  22    1.19    0.53
  -2  -2  22    1.47    0.83
  -2   2  22    0.96    0.78
  -2  -2  21  312.03   14.83
  -2   2  21  269.56   14.65
  -2   2  21  274.70   14.36
  -2  -2  21  293.29   14.35
  -2  -2  21  291.37   13.21
  -2   2  21  288.79   13.28
  -2   2  21  281.45   14.16
  -2  -2  20  241.51   11.76
  -2   2  20  254.93   11.96
  -2   2  20  236.83   13.39
  -2  -2  20  248.39   13.35
  -2   2  20  246.79   12.95
  -2  -2  20  271.38   13.33
  -2   2  19  210.30   10.49
  -2  -2  19  220.52   10.45
  -2   2  19  202.93   11.42
  -2  -2  19  237.81   12.05
  -2  -2  19  192.01   14.04
  -2   2  19  179.51   13.99
  -2  -2  18  306.99   13.97
  -2   2  18  314.57   14.14
  -2   2  18  304.61   15.18
  -2  -2  18  304.88   15.41
  -2   2  18  287.65   18.53
  -2   2  18  284.82   13.71
  -2   2  17  163.58    8.48
  -2  -2  17  166.72    8.39
  -2   2  17  160.02    9.38
  -2  -2  17  163.28    9.64
  -2  -2  17  165.13   12.15
  -2   2  17  154.14   12.18
  -2   2  17  156.26    8.24
  -2   2  16  267.45   17.88
  -2   2  16  326.72   16.03
  -2  -2  16  325.00   16.22
  -2  -2  16  354.09   19.66
  -2   2  16  333.55   19.72
  -2  -2  16  335.92   20.26
  -2   2  16  328.48   14.91
  -2  -2  15   60.44    5.44
  -2   2  15   64.89    6.70
  -2   2  15   71.27    5.12
  -2  -2  15   71.31    5.24
  -2   2  15   84.22    7.71
  -2  -2  15   73.38    7.11
  -2  -2  15   59.58    7.07
  -2   2  15   75.26    4.46
  -2   2  14  415.21   21.90
  -2  -2  14  354.50   19.73
  -2  -2  14  410.31   22.93
  -2  -2  14  403.34   19.07
  -2   2  14  406.94   18.95
  -2   2  14  414.36   18.09
  -2  -2  14  426.25   22.08
  -2   2  14  451.54   22.73
  -2  -2  13  379.09   20.96
  -2   2  13  385.56   20.26
  -2  -2  13  349.51   18.42
  -2  -2  13  324.96   20.71
  -2   2  13  368.33   17.28
  -2  -2  13  393.11   20.20
  -2   2  13  377.96   21.54
  -2   2  13  416.63   20.79
  -2   2  12   17.83    3.04
  -2   2  12   24.68    3.92
  -2   2  12   23.79    4.21
  -2  -2  12   17.34    3.48
  -2   2  12   21.01    2.19
  -2  -2  12   19.89    3.14
  -2  -2  12   18.18    3.23
  -2   2  12   32.13    3.95
  -2  -2  11   52.67    5.00
  -2   2  11   51.88    5.10
  -2   2  11   58.33    6.27
  -2   2  11   43.87    4.78
  -2   2  11   47.96    5.32
  -2  -2  11   45.16    5.01
  -2   2  10  477.70   23.01
  -2   2  10  483.35   24.75
  -2   2  10  440.83   23.25
  -2   2   9  228.34   14.11
  -2   2   9  242.83   13.45
  -2   2   8    2.10    1.04
  -2   2   8    0.30    0.78
  -2   2   7  110.00    6.89
  -2   2   7  104.05    7.47
  -2   2   7   96.65    6.04
  -2   2   6   38.17    3.05
  -2  -2   5   45.64    3.31
  -2   2   5   49.93    3.40
  -2  -2   4   97.99    5.15
   2  -2  -3    1.48    0.92
   2   2  -3    0.95    0.84
  -2  -2   3    1.28    0.38
   2   2  -2    7.87    1.43
   2  -2  -2   10.30    1.55
  -2  -2   2    8.47    0.65
   2  -2  -1  228.60   10.99
   2   2  -1  223.99   11.12
   2  -2   0   38.18    3.02
   2   2   0   34.51    2.99
   2   2   1   81.43    5.62
   2  -2   1   89.56    5.92
   2   2   1   78.17    5.35
   2  -2   1   98.57    5.55
   2  -2   2  564.02   24.09
   2   2   2  584.31   24.24
   2   2   2  522.59   25.54
   2  -2   2  578.40   25.93
   2   2   3    2.92    0.72
   2  -2   3    2.46    0.63
   2   2   3    2.39    1.07
   2  -2   3    0.44    0.85
   2  -2   4  329.90   14.69
   2   2   4  317.23   14.71
   2  -2   4  309.45   14.76
   2   2   4  321.20   14.80
   2  -2   5  825.07   35.65
   2   2   5  827.87   35.64
   2  -2   6  110.38    7.00
   2   2   6  128.75    7.29
   2   2   7    5.82    1.38
   2  -2   7    4.02    1.24
   2  -2   7    3.70    0.60
   2   2   7    4.72    0.65
   2  -2   8  132.67    8.23
   2   2   8  132.10    8.20
   2  -2   8  124.13    5.97
   2   2   8  120.40    5.94
   2  -2   9  553.75   25.47
   2   2   9  549.30   25.48
   2  -2   9  523.91   22.35
   2   2   9  518.32   22.35
   2  -2  10 2826.95  113.81
   2   2  10 2821.56  113.89
   2   2  10 2699.75  110.02
   2  -2  10 2647.24  109.97
   2  -2  11  102.30    5.38
   2   2  11  106.36    5.45
   2   2  11   91.49    6.28
   2  -2  11  104.15    6.47
   2  -2  11  103.19    6.22
   2   2  11   94.23    6.13
   2   2  11  100.46    5.66
   2  -2  11  107.95    8.12
   2   2  11  100.46    7.97
   2   2  11   95.84    5.26
   2  -2  12  187.79    8.87
   2   2  12  184.48    8.88
   2   2  12  174.72   10.13
   2  -2  12  181.88   10.14
   2  -2  12  182.28    9.16
   2   2  12  175.14    9.83
   2  -2  12  183.36    9.86
   2  -2  12  170.63    9.32
   2  -2  12  192.64   12.33
   2   2  12  191.86   12.40
   2  -2  13  100.69    6.78
   2   2  13   94.06    6.73
   2  -2  13   94.80    6.41
   2  -2  13   97.54    5.83
   2   2  13   94.35    6.47
   2  -2  13  108.33    8.71
   2   2  13  106.57    8.83
   2  -2  13  100.16    5.55
   2   2  13  104.89    5.68
   2  -2  14   -0.22    0.82
   2   2  14    1.18    1.02
   2  -2  14    1.18    0.85
   2   2  14    1.04    0.96
   2  -2  14    1.29    1.22
   2   2  14    0.45    1.05
   2   2  14    0.95    0.63
   2  -2  14    0.90    0.62
   2  -2  15  151.69    9.67
   2   2  15  164.76   10.03
   2   2  15  125.43   15.05
   2  -2  15  188.11   17.29
   2   2  15  163.08    9.61
   2  -2  15  158.84    9.48
   2  -2  15  166.75   12.22
   2   2  15  169.45   12.59
   2  -2  15  166.54    8.46
   2  -2  16  187.71   10.89
   2   2  16  165.77   10.72
   2  -2  16  189.71   17.95
   2   2  16  183.22   18.22
   2   2  16  182.82   10.60
   2   2  16  191.80    9.98
   2  -2  16  182.22   10.44
   2  -2  17  279.08   14.01
   2   2  17  276.91   13.38
   2   2  17  263.55   14.03
   2   2  17  269.19   14.53
   2  -2  17  278.26   14.43
   2  -2  17  259.63   21.97
   2   2  17  278.62   22.81
   2   2  17  244.76   12.82
   2  -2  18    5.12    1.55
   2   2  18    4.21    1.39
   2   2  18    4.67    1.28
   2   2  18    3.94    1.62
   2  -2  18    3.90    1.55
   2   2  18    3.73    0.91
   2  -2  19   35.57    3.57
   2   2  19   30.04    3.44
   2   2  19   29.72    2.74
   2  -2  19   30.33    3.15
   2   2  19   27.91    3.15
   2   2  20   68.79    5.11
   2  -2  20   59.94    4.75
   2   2  20   63.62    4.00
   2   2  21   19.66    2.35
   2  -2  21   20.50    2.33
   2  -2  22    6.44    1.17
   2   2  22    6.76    1.25
  -2   3  24    2.70    0.72
  -2  -3  24    2.72    0.73
  -2  -3  24    3.42    0.65
  -2   3  24    2.62    0.68
  -2   3  23  136.03    7.21
  -2  -3  23  142.40    7.08
  -2   3  23  117.23    6.83
  -2  -3  23  140.60    7.27
  -2   3  23  139.30    7.47
  -2   3  22   39.83    3.60
  -2  -3  22   48.31    3.66
  -2   3  22   40.02    3.43
  -2  -3  22   42.64    3.33
  -2   3  22   36.67    2.70
  -2  -3  22   40.24    2.68
  -2   3  22   39.22    3.19
  -2   3  21    1.67    1.09
  -2  -3  21    2.43    1.06
  -2  -3  21    4.31    1.18
  -2   3  21    3.15    1.19
  -2   3  21    2.11    0.90
  -2   3  21    2.31    0.73
  -2  -3  21    2.84    0.72
  -2  -3  20   46.20    4.16
  -2   3  20   37.03    3.97
  -2   3  20   44.54    3.20
  -2  -3  20   43.35    3.07
  -2   3  20   34.56    3.47
  -2  -3  20   39.91    3.71
  -2   3  20   40.80    3.94
  -2   3  19    1.92    0.74
  -2  -3  19    0.93    0.66
  -2   3  19    0.82    0.56
  -2  -3  19    2.82    1.30
  -2   3  19    0.39    0.85
  -2   3  18   38.54    3.12
  -2  -3  18   39.75    3.07
  -2   3  18   38.57    3.06
  -2  -3  18   38.65    5.48
  -2   3  18   38.40    5.44
  -2   3  18   39.15    3.72
  -2  -3  18   38.36    3.91
  -2  -3  17   68.94    4.37
  -2   3  17   67.11    4.46
  -2   3  17   64.83    4.38
  -2  -3  17   66.30    7.05
  -2   3  17   78.42    7.87
  -2  -3  17   73.84    5.57
  -2   3  17   65.71    5.14
  -2   3  16  643.96   35.02
  -2   3  16  715.58   30.88
  -2  -3  16  746.42   35.70
  -2   3  16  750.86   36.36
  -2  -3  16  687.41   36.19
  -2  -3  16  729.67   32.33
  -2   3  16  724.20   31.95
  -2  -3  15  120.82   10.17
  -2   3  15  118.72    9.69
  -2   3  15  118.52    6.54
  -2   3  15  120.02    9.85
  -2  -3  15  115.04    9.37
  -2  -3  15  118.45    7.51
  -2   3  15  115.41    7.17
  -2  -3  14   25.20    4.41
  -2   3  14   29.79    2.85
  -2  -3  14   26.73    3.95
  -2   3  14   23.21    3.88
  -2  -3  14   26.87    4.23
  -2   3  14   21.86    3.65
  -2  -3  13  812.49   44.55
  -2   3  13  939.76   39.91
  -2  -3  13  994.51   43.09
  -2   3  13 1073.92   44.06
  -2   3  13  935.59   43.45
  -2  -3  13  942.57   43.83
  -2  -3  13  859.84   40.61
  -2   3  12  525.71   27.74
  -2  -3  12  518.66   25.55
  -2   3  12  494.14   25.13
  -2  -3  12  429.12   26.41
  -2   3  12  467.15   21.91
  -2   3  12  541.85   25.32
  -2   3  12  547.44   26.59
  -2  -3  12  474.46   24.34
  -2  -3  11  210.07   12.75
  -2   3  11  197.11   12.38
  -2   3  11  222.89   14.56
  -2  -3  11  169.31   13.45
  -2   3  11  213.91   13.21
  -2   3  11  218.86   12.57
  -2  -3  11  188.93   11.84
  -2   3  10   74.14    5.94
  -2  -3  10   60.64    5.25
  -2   3  10   55.22    6.30
  -2   3  10   62.56    5.81
  -2   3  10   56.93    5.49
  -2   3   9  109.21    8.82
  -2   3   9  115.72    8.01
  -2   3   8   10.53    1.96
  -2   3   8    9.16    2.28
  -2   3   8   11.70    1.86
  -2   3   7  792.92   34.01
  -2   3   7  763.26   33.54
  -2   3   7  725.04   35.12
  -2   3   6   75.11    5.05
  -2   3   6   69.46    4.85
  -2   3   5  777.02   32.62
  -2   3   5  731.97   32.54
  -2   3   4   17.28    1.79
   2   3  -3    3.94    1.18
   2  -3  -3    3.54    1.06
   2  -3  -2    3.03    0.93
   2   3  -2    2.26    0.91
   2   3  -2    2.15    0.40
   2   3  -1  346.87   14.83
   2  -3  -1  374.35   16.04
   2   3  -1  321.73   16.01
   2   3   0   80.70    3.98
   2  -3   0   70.55    4.49
   2  -3   1  144.31    8.09
   2   3   1  129.99    7.66
   2  -3   1  140.70    7.34
   2   3   1  116.73    7.23
   2  -3   2  431.01   18.94
   2   3   2  441.46   19.09
   2  -3   2  484.35   21.07
   2   3   2  414.51   20.46
   2  -3   3  402.36   17.21
   2   3   3  383.01   17.25
   2  -3   3  399.46   19.20
   2   3   3  364.13   18.77
   2   3   4    3.08    0.77
   2  -3   4    3.21    0.76
   2   3   4    3.51    0.86
   2  -3   4    3.47    0.89
   2  -3   5  189.05   10.15
   2   3   5  212.46   10.33
   2  -3   6   11.11    1.76
   2   3   6   14.32    1.91
   2  -3   7   13.91    2.10
   2   3   7   17.67    2.35
   2  -3   7   14.47    1.25
   2   3   7   18.64    1.36
   2  -3   8  233.88   12.52
   2   3   8  234.79   12.56
   2  -3   8  222.53   10.08
   2   3   8  225.86   10.10
   2  -3   9  365.53   18.27
   2   3   9  377.55   18.48
   2   3   9  353.29   15.41
   2  -3   9  347.35   15.37
   2  -3  10  131.77    6.40
   2   3  10  132.62    6.43
   2  -3  10  130.76    7.44
   2   3  10  121.69    7.35
   2  -3  10  132.44    7.23
   2   3  10  123.26    7.14
   2   3  10  128.90    6.75
   2  -3  10  135.89    9.06
   2   3  10  126.72    8.93
   2   3  10  121.35    6.33
   2  -3  11  860.23   34.89
   2   3  11  862.65   34.96
   2  -3  11  851.20   36.34
   2   3  11  808.33   36.29
   2   3  11  769.41   35.86
   2   3  11  838.44   35.35
   2  -3  11  830.35   35.93
   2  -3  11  867.54   38.84
   2   3  11  862.62   39.03
   2   3  11  788.10   34.82
   2  -3  12   73.68    5.48
   2   3  12   75.48    5.62
   2  -3  12   80.17    5.40
   2   3  12   79.01    5.45
   2   3  12   75.88    4.86
   2  -3  12   81.75    7.17
   2   3  12   75.99    7.11
   2  -3  12   87.08    4.66
   2   3  12   75.19    4.54
   2   3  13  429.52   21.50
   2  -3  13  473.45   21.56
   2  -3  13  442.32   21.00
   2   3  13  425.54   21.09
   2  -3  13  455.14   24.03
   2   3  13  449.84   24.32
   2  -3  13  465.66   19.91
   2   3  13  457.20   19.99
   2  -3  14    0.88    1.11
   2   3  14    1.91    1.26
   2  -3  14    1.54    0.95
   2   3  14    0.21    1.03
   2  -3  14    0.42    1.30
   2   3  14    1.38    1.30
   2  -3  14    0.11    0.50
   2   3  14    2.87    0.90
   2  -3  15  110.10   12.87
   2   3  15  101.68    7.37
   2   3  15  120.19   13.87
   2  -3  15  103.21    7.21
   2  -3  15  111.94    7.09
   2   3  15  101.69    7.04
   2   3  16   94.02    6.88
   2  -3  16   88.59    6.54
   2   3  16   94.64   12.62
   2  -3  16   97.72   12.05
   2  -3  16   84.50    6.14
   2   3  16   90.34    6.47
   2   3  17   72.15    4.91
   2   3  17   68.69    5.84
   2  -3  17   80.09   10.55
   2  -3  17   79.40    5.90
   2   3  17   72.78    5.10
   2   3  17   73.97    5.66
   2  -3  17   68.13    5.30
   2   3  18   80.06    5.29
   2   3  18   87.47    5.70
   2  -3  18   91.75    6.10
   2   3  18   85.90    6.19
   2  -3  18  100.04    6.64
   2   3  18   92.19    6.71
   2  -3  19    1.52    0.98
   2   3  19    0.94    0.99
   2   3  19    1.54    0.84
   2   3  19    1.78    1.26
   2  -3  19    0.80    1.01
   2   3  20   18.76    1.95
   2  -3  20   18.23    2.37
   2   3  20   20.31    2.58
   2   3  21  156.20    8.48
   2  -3  21  150.07    8.23
   2   3  22    7.11    1.25
   2  -3  22    8.08    1.19
  -2   4  24    1.22    0.48
  -2   4  23  150.00    7.93
  -2  -4  23  165.76    7.82
  -2   4  23  142.89    8.09
  -2  -4  23  169.78    8.06
  -2   4  22   38.38    3.05
  -2  -4  22   41.99    3.31
  -2   4  22   34.84    3.30
  -2   4  22   39.71    3.28
  -2  -4  22   37.97    3.05
  -2   4  21  117.08    7.67
  -2  -4  21  142.15    7.74
  -2   4  21  114.58    7.11
  -2   4  21  121.70    6.53
  -2  -4  21  129.23    6.43
  -2   4  21  121.95    7.49
  -2  -4  21  134.07    7.38
  -2  -4  20   81.22    5.80
  -2   4  20   76.31    5.97
  -2  -4  20   79.74    4.67
  -2   4  20   81.38    4.87
  -2   4  20   81.92    5.59
  -2  -4  20   77.76    5.48
  -2   4  20   87.56    5.98
  -2  -4  19   34.24    2.77
  -2   4  19   34.17    2.86
  -2   4  19   36.49    3.50
  -2   4  19   38.73    3.01
  -2  -4  18  366.58   16.42
  -2   4  18  369.48   16.67
  -2  -4  18  391.13   18.31
  -2   4  18  350.40   17.55
  -2  -4  18  328.01   20.36
  -2   4  18  338.75   21.13
  -2   4  18  356.84   16.64
  -2  -4  17  229.75   10.52
  -2   4  17  217.20   10.63
  -2  -4  17  213.96   11.90
  -2   4  17  192.79   11.32
  -2  -4  17  204.76   14.16
  -2   4  17  207.02   14.69
  -2   4  17  213.57   10.70
  -2   4  16  187.95    9.13
  -2   4  16  170.31    9.82
  -2  -4  16  184.39   10.37
  -2   4  16  174.49   12.84
  -2  -4  16  160.85   12.11
  -2  -4  16  168.88   12.81
  -2   4  16  174.53    9.14
  -2  -4  15  277.52   17.07
  -2   4  15  248.68   16.54
  -2   4  15  280.21   12.85
  -2  -4  15  272.76   16.28
  -2   4  15  288.43   17.14
  -2   4  15  260.27   13.42
  -2   4  14  264.77   15.83
  -2  -4  14  266.67   15.31
  -2  -4  14  211.26   16.61
  -2   4  14  243.16   12.49
  -2   4  14  239.95   15.64
  -2  -4  14  259.16   15.87
  -2  -4  13  119.26   11.60
  -2   4  13  146.62    8.24
  -2  -4  13  154.47   11.02
  -2   4  13  145.55   10.93
  -2  -4  13  155.54   10.38
  -2   4  13  160.69   10.93
  -2   4  13  170.69   13.35
  -2   4  12   23.75    4.42
  -2  -4  12   23.77    2.52
  -2  -4  12   21.88    3.46
  -2   4  12   28.02    4.03
  -2  -4  12   17.81    2.31
  -2  -4  12   21.86    4.24
  -2   4  12   22.00    2.33
  -2  -4  12   23.59    3.30
  -2   4  12   25.72    3.65
  -2   4  11    6.20    1.93
  -2   4  11    7.98    1.93
  -2  -4  11    9.19    2.13
  -2  -4  11    7.43    1.85
  -2   4  11    8.06    2.13
  -2   4  11    3.48    1.92
  -2  -4  11    8.26    2.64
  -2  -4  11    5.92    1.19
  -2   4  10    3.66    1.34
  -2  -4  10    5.05    1.46
  -2   4  10    1.92    1.17
  -2   4  10    1.77    1.62
  -2   4   9  404.68   20.38
  -2   4   9  447.51   20.35
  -2   4   9  372.21   19.62
  -2   4   9  384.95   21.76
  -2   4   8  132.84    8.28
  -2   4   8  114.94    9.07
  -2   4   8  122.98    7.93
  -2   4   7 1364.36   57.40
  -2   4   7 1326.09   57.34
  -2   4   6 1035.24   43.57
  -2   4   6  992.12   43.74
  -2   4   5  127.10    7.00
  -2   4   5  122.92    7.36
   2   4  -4    1.55    1.06
  -2   4   4    3.32    0.77
   2   4  -3  270.54   13.37
  -2   4   3  257.66   12.00
   2  -4  -3  284.99   13.18
   2   4  -2 1035.08   46.40
  -2   4   2 1082.25   45.05
   2  -4  -1  534.54   21.43
   2   4  -1  496.79   20.61
   2  -4   0  469.86   19.20
   2   4   0  471.18   18.76
   2   4   1   93.45    5.06
   2  -4   1   85.00    4.42
   2  -4   1   93.50    5.31
   2   4   2   12.75    1.39
   2  -4   2   14.57    1.39
   2   4   2   15.78    1.81
   2   4   2   11.56    1.92
   2  -4   2   17.65    2.39
   2  -4   3  603.98   25.94
   2   4   3  600.77   26.06
   2   4   3  598.39   27.85
   2  -4   3  644.04   28.20
   2  -4   4    4.42    1.42
   2   4   4    3.31    1.29
   2  -4   5    5.66    1.16
   2   4   5    6.83    1.24
   2  -4   6   46.27    3.82
   2   4   6   47.59    3.85
   2   4   7    3.54    1.10
   2  -4   7   10.43    1.76
   2   4   7    3.14    0.55
   2  -4   7    8.14    0.83
   2  -4   8  416.38   19.78
   2   4   8  412.34   19.74
   2  -4   8  393.47   17.12
   2   4   8  403.37   17.15
   2  -4   9  154.08    9.33
   2   4   9  141.44    9.15
   2  -4   9  138.12    6.73
   2   4   9  141.12    6.77
   2   4  10  980.47   46.78
   2  -4  10 1142.43   47.03
   2   4  10 1022.43   46.57
   2   4  10 1019.85   46.11
   2  -4  10 1164.59   46.79
   2  -4  10 1196.77   49.47
   2   4  10 1175.46   49.56
   2  -4  10 1177.83   45.76
   2   4  10 1124.48   45.76
   2   4  11   10.23    1.82
   2  -4  11   15.75    2.09
   2  -4  11   15.65    1.95
   2   4  11   14.14    1.70
   2   4  11   15.27    2.01
   2  -4  11   11.97    2.43
   2   4  11   17.48    2.99
   2   4  11   13.06    1.45
   2  -4  11   14.73    1.48
   2  -4  12   35.69    3.42
   2   4  12   30.02    3.26
   2   4  12   34.31    3.27
   2  -4  12   34.93    3.23
   2   4  12   31.85    2.86
   2  -4  12   35.02    4.47
   2   4  12   31.48    4.38
   2  -4  12   37.93    2.66
   2   4  12   34.89    2.65
   2   4  13  112.49    7.61
   2  -4  13  122.69    7.62
   2  -4  13  125.39    7.37
   2   4  13  105.64    7.17
   2   4  13  117.05    6.83
   2  -4  13  121.16    9.43
   2   4  13  123.29    9.80
   2   4  13  118.82    6.41
   2  -4  13  118.75    6.30
   2  -4  14  116.44    9.38
   2   4  14  129.89   14.44
   2  -4  14  136.64   13.99
   2   4  14  108.46    7.58
   2  -4  14  108.87    7.39
   2   4  14  112.38    7.32
   2  -4  14  114.06    7.17
   2   4  15    2.92    0.98
   2  -4  15    2.01    1.13
   2  -4  15    3.68    2.38
   2   4  15    1.03    1.68
   2   4  15    2.49    1.26
   2  -4  15    3.92    1.26
   2   4  15    3.49    1.38
   2   4  16    3.43    1.08
   2  -4  16    4.07    1.44
   2  -4  16    9.37    3.43
   2   4  16    5.35    1.62
   2  -4  16    4.51    1.43
   2   4  16    6.63    1.67
   2   4  17  138.60    7.97
   2   4  17  144.65    9.20
   2  -4  17  154.59    8.95
   2   4  17  130.77    8.00
   2  -4  17  137.37    8.33
   2   4  17  147.13    8.76
   2   4  18    5.37    1.18
   2  -4  18    7.52    1.70
   2   4  18    8.10    1.91
   2   4  18    9.47    1.84
   2  -4  18    7.62    1.63
   2   4  18    8.86    1.56
   2   4  19  289.97    9.35
   2  -4  19  299.04    8.89
   2   4  19  271.79    7.39
   2   4  20  142.94    8.51
   2  -4  20  148.10    8.32
   2   4  20  151.52    7.73
   2  -4  21    3.93    0.99
   2   4  21    1.43    0.78
   2   4  21    2.43    0.66
   2   4  22   26.53    2.22
   2  -4  22   28.74    2.15
  -2   5  23  187.66   10.08
  -2  -5  23  231.34   10.04
  -2   5  23  191.67    9.89
  -2  -5  23  237.13    9.84
  -2  -5  22  246.26   10.81
  -2   5  22  210.07   10.90
  -2  -5  22  241.19   10.53
  -2   5  22  202.81   10.59
  -2   5  22  203.10   10.67
  -2   5  22  195.43   10.25
  -2  -5  21    6.68    1.43
  -2   5  21    5.42    1.40
  -2  -5  21    6.67    1.28
  -2   5  21    6.42    1.38
  -2   5  21    6.30    1.22
  -2  -5  21    5.39    0.89
  -2   5  21    5.06    0.92
  -2   5  20    0.87    0.87
  -2  -5  20    1.46    0.94
  -2  -5  20   -0.16    0.67
  -2   5  20    0.77    0.83
  -2   5  20    0.33    0.67
  -2   5  20    0.97    0.54
  -2  -5  20    0.56    0.49
  -2   5  19    4.29    0.95
  -2  -5  19    3.50    0.81
  -2  -5  19    3.22    1.21
  -2   5  19    1.42    0.96
  -2   5  19    3.99    1.06
  -2   5  19    1.83    0.88
  -2  -5  19    3.41    1.18
  -2   5  19    3.18    1.25
  -2  -5  18    3.06    0.86
  -2   5  18    1.64    0.73
  -2   5  18    1.11    0.68
  -2   5  18    2.51    1.10
  -2   5  18    3.38    1.48
  -2  -5  18    2.93    1.37
  -2  -5  17   11.42    1.48
  -2   5  17    8.91    1.45
  -2   5  17   12.09    1.73
  -2   5  17   11.75    1.97
  -2   5  17   10.61    2.82
  -2  -5  17    9.65    2.51
  -2  -5  16   40.34    2.99
  -2   5  16   43.02    3.24
  -2   5  16   39.46    3.31
  -2   5  16   39.53    3.70
  -2  -5  16   43.60    5.57
  -2   5  16   38.98    5.37
  -2  -5  16   39.32    5.09
  -2  -5  15  232.66   14.92
  -2   5  15  207.08   14.82
  -2  -5  15  198.85   15.96
  -2   5  15  204.05   11.44
  -2  -5  15  222.03   14.15
  -2   5  15  216.82   14.58
  -2   5  15  241.76   11.24
  -2   5  14    3.73    1.59
  -2  -5  14    6.53    1.97
  -2  -5  14    2.91    1.45
  -2   5  14    4.51    1.18
  -2  -5  14    3.93    2.01
  -2   5  14    4.71    1.97
  -2   5  13   45.76    3.68
  -2  -5  13   32.65    5.80
  -2  -5  13   44.28    5.16
  -2   5  13   39.16    5.19
  -2  -5  13   42.58    4.78
  -2   5  13   42.94    5.12
  -2   5  13   44.21    6.67
  -2   5  12   13.49    3.49
  -2  -5  12   12.93    1.88
  -2   5  12   16.62    3.18
  -2   5  12   13.24    2.65
  -2  -5  12   14.00    2.47
  -2  -5  12   13.46    2.70
  -2   5  12   11.61    1.72
  -2  -5  12   14.62    3.78
  -2   5  11  327.72   20.10
  -2  -5  11  336.90   16.89
  -2   5  11  343.03   17.48
  -2  -5  11  297.11   20.28
  -2   5  11  319.14   14.94
  -2  -5  11  291.35   14.82
  -2   5  10   38.34    4.17
  -2  -5  10   40.40    4.05
  -2  -5  10   38.69    5.91
  -2   5  10   37.79    5.27
  -2   5   9   93.43    7.27
  -2  -5   9   85.92    6.27
  -2   5   9  102.15    6.94
  -2   5   9   84.06    8.03
  -2   5   9   81.93    6.63
  -2   5   8 1708.60   71.66
  -2   5   8 1643.60   73.41
  -2   5   8 1649.11   71.21
  -2   5   7 1354.44   58.84
  -2   5   7 1382.34   58.26
  -2   5   7 1358.83   58.74
  -2   5   6  672.64   29.40
  -2   5   6  651.08   30.08
  -2   5   5   63.64    4.24
   2   5  -5   55.90    4.92
   2  -5  -4  512.90   21.91
   2   5  -4  432.43   21.88
   2   5  -3 1706.96   77.19
   2  -5  -3 1997.18   77.12
   2  -5  -2  120.98    6.40
   2   5  -2  104.80    6.47
   2   5  -1    0.84    0.52
   2   5  -1    0.66    0.57
   2  -5  -1    2.23    0.73
   2   5   0  592.20   22.71
   2  -5   0  563.55   22.50
   2   5   1  286.75   13.16
   2  -5   1  300.92   13.07
  -2   5  -1  288.26   12.81
   2   5   1  297.68   13.56
   2   5   2    0.94    0.75
   2  -5   2    3.70    1.14
   2   5   2    2.80    0.61
   2  -5   2    4.01    0.68
  -2   5  -2    2.14    0.29
   2   5   2    2.18    0.76
   2   5   2    3.04    0.88
   2   5   3  322.20   14.60
   2  -5   3  317.66   15.36
   2   5   4   31.10    3.64
   2  -5   4   40.81    4.14
   2   5   5  555.67   28.64
   2   5   5  604.01   25.54
   2   5   6    9.09    1.13
   2  -5   6    8.78    2.39
   2   5   6    7.75    2.07
   2  -5   6    9.74    1.63
   2  -5   7   10.72    1.79
   2   5   7   11.52    1.89
   2   5   7    9.45    0.94
   2  -5   7    9.54    0.94
   2  -5   8   32.29    3.44
   2   5   8   31.65    3.43
   2  -5   8   30.02    2.00
   2   5   8   28.82    1.98
   2  -5   9   39.08    4.09
   2   5   9   43.18    4.28
   2  -5   9   37.04    2.43
   2   5   9   39.83    2.50
   2   5   9   35.68    2.79
   2   5   9   38.84    2.62
   2  -5  10   20.16    3.03
   2   5  10   25.34    3.46
   2  -5  10   24.94    1.91
   2   5  10   24.84    1.93
   2   5  10   23.33    2.52
   2  -5  10   25.51    2.54
   2   5  10   18.68    2.17
   2   5  10   25.24    2.28
   2  -5  10   22.70    2.33
   2   5  10   25.09    2.06
   2  -5  11    6.74    1.84
   2   5  11    8.21    2.08
   2  -5  11    7.24    1.04
   2   5  11    8.34    1.14
   2  -5  11    6.88    1.39
   2   5  11    9.58    1.70
   2   5  11   10.06    1.45
   2  -5  11    8.41    1.45
   2   5  11    5.72    1.27
   2   5  11    8.58    1.23
   2  -5  12    1.41    1.16
   2   5  12    3.83    1.53
   2  -5  12    2.94    1.02
   2   5  12    3.24    2.47
   2  -5  12    3.70    2.10
   2   5  12    1.61    1.04
   2  -5  12    2.40    0.70
   2   5  12    2.38    0.86
   2  -5  12    1.29    0.75
   2   5  12    3.35    1.06
   2  -5  13   20.91    2.64
   2  -5  13   18.49    4.90
   2   5  13   21.28    2.77
   2   5  13   19.60    5.22
   2   5  13   28.79    2.63
   2   5  13   22.12    2.67
   2  -5  13   19.07    2.44
   2   5  14   16.66    2.20
   2   5  14   20.21    5.47
   2  -5  14   14.17    2.19
   2   5  14   12.65    2.26
   2  -5  14   17.13    4.67
   2   5  14   12.11    2.08
   2  -5  14    9.49    1.81
   2   5  15  220.58   11.60
   2   5  15  208.93   11.88
   2  -5  15  237.60   11.91
   2  -5  15  229.74   12.17
   2   5  15  211.04   12.32
   2  -5  15  242.71   19.41
   2   5  15  186.02   18.41
   2   5  16   14.93    2.08
   2   5  16   15.56    2.40
   2  -5  16   15.25    2.24
   2  -5  16   17.74    2.60
   2   5  16   16.55    4.82
   2  -5  16   20.75    5.03
   2   5  16   16.65    2.62
   2  -5  16   13.45    1.74
   2   5  17   41.33    4.17
   2  -5  17   41.69    3.93
   2   5  17   36.39    3.38
   2  -5  17   40.59    3.63
   2   5  17   40.03    3.82
   2  -5  18  341.95   15.69
   2   5  18  304.41   15.80
   2   5  18  296.13   14.62
   2   5  18  300.14   14.87
   2   5  19  198.47   11.04
   2   5  19  188.44    9.78
   2   5  19  199.10   10.26
   2  -5  20    9.83    1.59
   2   5  20    7.06    1.48
   2   5  20    8.95    1.34
   2  -5  21   41.22    2.88
   2   5  21   35.85    2.92
   2   5  21   32.96    2.44
  -2   6  22    7.12    1.22
  -2  -6  22    8.60    1.18
  -2   6  22    7.04    1.24
  -2   6  22    8.06    0.98
  -2   6  22    7.69    1.19
  -2  -6  22    9.22    1.13
  -2   6  21    1.96    0.75
  -2   6  21    2.70    1.00
  -2  -6  21    2.51    0.94
  -2   6  21    2.65    1.02
  -2  -6  21    3.82    0.94
  -2   6  21    3.06    1.00
  -2   6  20   28.12    3.08
  -2  -6  20   32.37    3.04
  -2  -6  20   29.46    2.72
  -2   6  20   28.46    2.47
  -2   6  20   25.74    2.81
  -2   6  20   30.00    2.86
  -2  -6  20   28.22    2.16
  -2   6  20   26.40    2.25
  -2  -6  19  141.01    7.81
  -2   6  19  109.25    7.67
  -2   6  19  112.14    7.49
  -2   6  19  118.50    6.87
  -2  -6  19  135.82    7.46
  -2   6  19  120.13    7.37
  -2   6  19  119.89    6.57
  -2  -6  19  131.29    6.48
  -2   6  18   16.21    2.59
  -2  -6  18   21.96    2.68
  -2   6  18   19.80    2.04
  -2  -6  18   20.67    1.97
  -2   6  18   20.15    2.58
  -2  -6  18   22.57    2.56
  -2   6  18   21.76    2.32
  -2  -6  17   98.77    8.55
  -2   6  17   92.30    8.67
  -2   6  17   99.22    6.16
  -2   6  17  100.23    6.64
  -2  -6  17  105.42    5.67
  -2   6  17  102.80    5.83
  -2   6  16    2.12    1.00
  -2   6  16    0.91    0.79
  -2   6  16    1.36    0.91
  -2  -6  16    1.56    1.01
  -2  -6  16    0.86    0.70
  -2  -6  16    0.93    0.57
  -2   6  16    0.48    0.50
  -2   6  15    2.62    1.11
  -2  -6  15    0.69    0.80
  -2   6  15    1.80    0.84
  -2   6  15    3.90    1.59
  -2  -6  15    4.26    1.56
  -2  -6  15    0.38    0.98
  -2   6  15    2.88    0.79
  -2  -6  15    3.00    0.78
  -2  -6  14   60.47    8.20
  -2   6  14   64.22    4.77
  -2   6  14   60.85    7.02
  -2  -6  14   63.53    6.56
  -2   6  14   62.56    6.54
  -2  -6  14   64.34    6.28
  -2   6  14   63.83    8.47
  -2  -6  13   28.84    3.07
  -2  -6  13   31.49    3.99
  -2   6  13   30.55    4.17
  -2  -6  13   28.16    4.06
  -2   6  13   31.06    4.74
  -2   6  13   32.26    3.07
  -2  -6  13   26.38    5.53
  -2  -6  12   23.65    2.64
  -2  -6  12   26.14    3.46
  -2   6  12   33.54    4.12
  -2  -6  12   28.95    3.92
  -2   6  12   24.07    2.60
  -2  -6  12   22.96    5.06
  -2  -6  11  255.66   13.03
  -2  -6  11  246.44   14.29
  -2   6  11  295.24   15.36
  -2   6  11  274.14   13.12
  -2  -6  11  274.42   19.31
  -2   6  10  273.67   15.53
  -2  -6  10  242.30   12.73
  -2   6  10  299.51   16.20
  -2   6  10  275.21   13.01
  -2  -6  10  268.72   18.73
  -2  -6  10  258.01   14.16
  -2   6  10  284.16   14.80
  -2   6   9    1.93    1.29
  -2   6   9    2.13    0.99
  -2  -6   9    0.21    0.55
  -2  -6   9    0.60    1.21
  -2   6   9    0.62    0.72
  -2   6   8  266.67   13.15
  -2  -6   8  220.46   12.41
  -2   6   8  249.13   14.03
  -2   6   8  244.34   13.93
  -2   6   7  201.47   10.35
  -2   6   7  167.79   10.87
  -2   6   7  182.14   10.96
  -2   6   6  207.55   12.00
   2   6  -6  194.91   11.98
  -2   6   6  227.24   11.93
  -2   6   5 1593.99   64.97
   2  -6  -5 1623.94   65.01
  -2   6   4  721.35   30.11
   2  -6  -4  692.04   29.89
   2  -6  -3  766.37   30.70
  -2   6   3  796.64   31.08
   2   6  -2    9.66    1.44
   2  -6  -2    9.82    1.33
  -2   6   2   11.15    1.49
   2   6  -1   61.23    3.88
  -2   6   1   59.42    3.45
   2  -6  -1   57.80    3.38
   2   6  -1   37.91    3.05
   2   6  -1   41.62    2.35
  -2   6   0  657.34   26.87
   2   6   0  622.22   26.72
   2  -6   0  639.18   26.37
   2   6   0  597.01   26.43
   2   6   1   12.66    1.76
  -2   6  -1   10.56    1.00
   2  -6   1    8.89    0.96
   2   6   1    9.13    1.02
   2   6   1   10.15    1.35
   2   6   2  300.77   14.89
   2   6   2  330.56   15.52
   2   6   3    2.79    1.03
   2   6   3    2.27    0.88
   2   6   3    1.71    0.89
   2  -6   3    2.49    1.08
   2   6   3    3.92    0.69
   2   6   4    0.44    0.72
   2   6   4    0.75    0.82
   2  -6   4    0.77    0.84
   2   6   4    0.76    0.39
  -2  -6  -4    0.65    0.56
   2  -6   5   64.07    5.80
   2   6   5   59.91    5.63
   2   6   5   65.40    3.76
   2  -6   6  225.95   13.34
   2   6   6  196.91   12.86
   2   6   6  208.90    9.86
   2   6   7  249.44   15.64
   2  -6   7  277.65   16.08
   2   6   7  249.89   11.80
   2  -6   8   92.17    8.45
   2   6   8   77.69    7.95
   2   6   8   81.23    4.55
   2   6   8   84.35    4.90
   2   6   8   91.87    5.12
   2  -6   9    0.53    1.21
   2   6   9    0.55    0.90
   2   6   9    1.35    0.69
   2   6   9    0.44    0.41
   2   6  10    3.32    0.94
   2  -6  10    7.12    2.57
   2   6  10    5.68    2.53
   2  -6  10    4.88    1.11
   2   6  10    4.62    1.09
   2  -6  10    3.51    0.93
   2   6  10    3.31    0.87
   2   6  10    4.33    0.88
   2   6  11   11.38    1.65
   2   6  11    9.78    1.58
   2  -6  11    8.62    1.45
   2   6  11    8.95    1.30
   2   6  11    8.33    1.41
   2   6  11   10.01    3.42
   2  -6  11   10.64    1.70
   2  -6  11   11.23    3.43
   2   6  11    7.62    1.52
   2   6  12  349.50   15.97
   2   6  12  309.76   15.50
   2  -6  12  339.31   15.83
   2   6  12  316.41   15.84
   2   6  12  344.92   15.28
   2  -6  12  355.49   16.28
   2  -6  12  402.72   24.04
   2   6  12  300.86   22.53
   2   6  12  289.08   15.98
   2   6  13   81.45    5.59
   2  -6  13   90.60    5.98
   2  -6  13   96.14   10.74
   2   6  13   77.72    5.88
   2   6  13   82.96   10.53
   2   6  13   82.94    5.44
   2  -6  13   87.32    5.65
   2   6  13   77.93    5.66
   2   6  14   51.91    4.33
   2  -6  14   68.23    4.99
   2   6  14   51.56    8.69
   2   6  14   52.19    4.72
   2  -6  14   62.81    4.57
   2   6  14   55.17    4.54
   2   6  14   53.44    4.26
   2   6  15  194.26   10.75
   2   6  15  190.51   11.30
   2  -6  15  218.13   17.89
   2   6  15  188.22   17.95
   2  -6  15  223.59   11.34
   2   6  15  183.77   10.80
   2  -6  15  210.10   10.80
   2   6  16   26.06    2.84
   2  -6  16   28.15    2.90
   2   6  16   22.33    2.81
   2  -6  16   29.07    3.14
   2   6  16   25.35    3.15
   2   6  16   26.67    6.02
   2   6  17   23.13    2.60
   2  -6  17   28.61    3.06
   2   6  17   26.26    3.14
   2  -6  17   22.06    2.17
   2  -6  18   72.18    5.05
   2   6  18   58.47    5.01
   2   6  18   72.44    4.84
   2   6  18   62.78    4.47
   2   6  19    3.27    1.08
   2  -6  19    3.44    1.00
   2   6  19    3.34    1.02
   2   6  19    3.07    0.84
   2   6  20  185.28    9.42
   2   6  20  174.24    9.69
  -2   6 -21  205.12    3.60
   2   6  21  265.69    5.35
   2   7 -23    8.98    0.93
   2   7 -22    2.31    0.63
  -2   7  22    1.66    0.53
  -2   7  22    1.87    0.70
  -2  -7  21   92.93    4.47
  -2   7  21   80.92    4.64
  -2  -7  21   93.67    4.70
  -2   7  21   85.41    5.14
  -2  -7  20  138.26    7.21
  -2   7  20  109.29    7.16
  -2   7  20  125.13    7.14
  -2   7  20  102.61    6.87
  -2   7  20  138.48    6.97
  -2  -7  20  146.18    7.04
  -2   7  19  105.60    7.58
  -2  -7  19  165.48    8.08
  -2  -7  19  137.55    6.63
  -2   7  19  128.24    6.76
  -2   7  19  137.49    7.77
  -2  -7  19  144.62    7.52
  -2   7  19  108.43    7.40
  -2   7  19  141.23    7.41
  -2  -7  18   84.57    5.54
  -2   7  18   66.92    5.52
  -2  -7  18   81.94    4.50
  -2   7  18   77.26    4.63
  -2   7  18   69.06    5.32
  -2  -7  18   84.99    5.34
  -2   7  18   77.50    5.11
  -2   7  18   79.86    5.51
  -2   7  17  346.15   17.14
  -2  -7  17  379.99   17.28
  -2  -7  17  366.83   15.77
  -2   7  17  345.85   15.93
  -2  -7  17  358.87   16.82
  -2   7  17  379.41   16.83
  -2  -7  17  339.41   19.32
  -2   7  16    1.43    0.86
  -2   7  16    1.16    0.84
  -2  -7  16    1.47    0.85
  -2   7  16    1.70    0.98
  -2  -7  16    1.25    0.55
  -2   7  16    1.56    0.62
  -2   7  15  251.65   12.55
  -2  -7  15  266.48   11.67
  -2   7  15  251.79   11.81
  -2   7  15  253.86   13.02
  -2  -7  15  200.12   17.65
  -2  -7  15  238.52   15.32
  -2  -7  15  239.83   14.84
  -2   7  15  233.98   15.32
  -2   7  14   14.55    1.59
  -2  -7  14   16.53    1.61
  -2  -7  14   11.40    3.77
  -2   7  14   13.20    2.01
  -2  -7  14   16.90    2.95
  -2   7  14   13.45    2.90
  -2  -7  14   13.06    2.76
  -2  -7  13   79.08    7.23
  -2   7  13   87.79    5.78
  -2  -7  13   93.53   10.70
  -2  -7  13   73.74    6.61
  -2   7  13   83.54    7.25
  -2  -7  12   26.94    3.75
  -2   7  12   24.46    4.20
  -2  -7  12   24.26    5.41
  -2   7  12   22.20    2.58
  -2  -7  12   22.02    3.19
  -2   7  12   24.86    3.49
  -2   7  11  559.64   28.27
  -2  -7  11  498.66   25.52
  -2   7  11  578.40   26.53
  -2  -7  11  603.25   33.01
  -2   7  11  532.51   24.43
  -2   7  10  492.30   24.72
  -2  -7  10  431.03   22.09
  -2   7  10  489.11   22.86
  -2   7  10  472.59   24.36
  -2  -7  10  461.46   28.27
  -2   7  10  468.09   21.30
  -2   7   9   13.01    2.63
  -2  -7   9   11.26    1.87
  -2   7   9   10.80    1.97
  -2   7   9   10.97    3.05
  -2   7   9    9.86    2.31
  -2   7   9   12.52    1.72
  -2  -7   9    8.01    3.02
  -2   7   8   24.52    3.42
  -2  -7   8   23.39    2.60
  -2   7   8   21.96    2.61
  -2   7   8   18.45    3.70
  -2   7   8   23.47    3.49
  -2   7   7  122.89    8.10
   2  -7  -7  115.99    7.89
   2   7  -7  110.61    8.08
  -2   7   7  105.90    6.56
  -2  -7   7   95.23    6.31
  -2   7   7  113.11    8.25
  -2   7   6   12.48    2.15
   2   7  -6    3.63    1.46
   2  -7  -6    7.38    1.70
  -2  -7   6    6.89    1.22
  -2   7   6    9.03    1.40
  -2   7   6    7.40    1.89
  -2   7   5    6.62    1.10
  -2   7   5    6.11    1.46
   2  -7  -5    4.44    1.27
   2   7  -5    5.70    1.45
   2  -7  -4  960.57   38.72
  -2   7   4 1092.85   41.00
   2  -7  -3 1033.66   40.70
  -2   7   3 1170.08   42.53
   2  -7  -3 1082.54   41.45
  -2   7   2    6.91    1.23
   2   7  -2    3.85    0.75
   2  -7  -2    6.03    0.94
   2  -7  -2    5.56    0.87
   2  -7  -1    6.32    0.60
   2   7  -1    5.36    0.62
   2   7  -1    5.03    0.70
   2   7  -1    7.55    1.43
  -2   7   1    6.96    1.13
   2  -7  -1    6.00    0.91
  -2   7   0   40.28    2.71
   2   7   0   35.31    2.62
   2  -7   0   39.98    2.63
   2   7   0   35.40    2.12
   2  -7   0   38.63    2.09
   2   7   1  262.20   13.65
   2  -7   1  300.25   13.17
   2   7   2   13.33    2.08
   2   7   2    9.70    1.58
  -2  -7  -3    3.38    1.19
   2   7   3    4.13    1.18
   2   7   3    3.92    1.26
  -2  -7  -4    1.13    0.69
   2   7   4    0.25    0.64
   2   7   4    1.26    0.87
   2   7   4    0.48    0.74
   2  -7   4   -0.25    0.64
   2   7   5  219.37   13.53
   2   7   5  244.76   11.31
   2   7   6  238.40   15.40
   2   7   6  279.85   12.85
   2   7   7 1201.37   60.50
   2   7   7 1365.80   56.66
   2   7   8  119.19   10.27
   2   7   8  126.61    6.91
   2   7   8  130.54    6.59
   2   7   8  134.43    7.12
   2  -7   9   28.00    4.60
   2   7   9   24.18    4.56
   2   7   9   20.07    2.09
   2   7   9   23.09    2.00
   2   7   9   21.55    2.26
   2  -7  10    1.72    1.49
   2   7  10    3.67    1.02
   2   7  10    4.30    2.01
   2   7  10    2.64    0.84
   2   7  10    2.35    0.84
   2   7  10    2.63    0.75
   2   7  11  358.92   16.02
   2   7  11  316.74   16.23
   2  -7  11  380.77   16.47
   2   7  11  369.82   16.76
   2  -7  11  385.77   16.86
   2   7  11  301.03   16.43
   2   7  11  323.60   22.56
   2  -7  11  395.93   23.40
   2   7  12   14.12    1.75
   2   7  12   13.74    1.99
   2  -7  12   14.20    2.02
   2   7  12   10.96    1.84
   2  -7  12   11.88    3.65
   2   7  12    8.47    3.25
   2   7  12   15.08    1.94
   2   7  12   14.14    1.95
   2  -7  12   15.49    1.94
   2   7  13  628.92   27.41
   2   7  13  526.04   34.74
   2  -7  13  654.53   27.55
   2   7  13  535.69   27.29
   2  -7  13  658.10   35.74
   2  -7  13  669.47   27.16
   2   7  13  561.76   27.01
   2   7  13  598.83   27.01
   2   7  14   71.27    5.01
   2   7  14   52.91    4.76
   2  -7  14   68.19    4.95
   2   7  14   57.80    8.63
   2   7  14   55.00    4.54
   2  -7  14   62.69    4.55
   2   7  14   60.47    4.59
   2   7  15   71.57    5.09
   2   7  15   56.71    4.99
   2  -7  15   72.43    5.16
   2   7  15   62.17    9.26
   2  -7  15   69.85    4.77
   2   7  15   53.01    4.56
   2   7  16   85.79    5.86
   2  -7  16   91.75    6.06
   2   7  16   84.17    6.22
   2   7  17    4.14    1.15
   2  -7  17    8.27    1.58
   2   7  17    4.12    1.32
   2  -7  17    4.91    1.04
   2   7  18    0.62    0.74
   2  -7  18    0.60    0.74
   2   7  18    0.55    0.70
   2   7  18    0.71    0.61
   2   7  19    6.58    1.27
   2   7  19    4.89    1.19
   2  -7  19    9.91    1.42
  -2   7 -19    8.92    1.17
   2   7  19    8.15    1.22
  -2   7 -20   32.52    2.18
   2   7  20   35.04    2.70
   2   7  21    0.14    0.37
   2   8 -23    2.16    0.42
   2   8 -22   94.19    4.63
  -2   8  22   88.61    4.69
   2   8 -21    3.91    0.81
  -2   8  21    0.10    0.23
  -2   8  20   69.16    3.34
  -2   8  20    0.38    0.25
  -2   8  20   57.75    3.25
  -2   8  19   25.60    2.39
  -2   8  19   22.09    2.31
  -2   8  19   25.23    2.55
  -2   8  19   16.83    2.18
  -2  -8  18  210.66    9.58
  -2   8  18  186.84   10.77
  -2   8  18  175.87   10.44
  -2   8  18  237.97   10.92
  -2   8  18  226.44   11.14
  -2   8  18  218.19   11.31
  -2   8  17   48.11    4.27
  -2   8  17   61.80    4.34
  -2   8  17   45.54    4.03
  -2   8  17   57.95    4.52
  -2  -8  17   58.61    3.45
  -2   8  16  168.43   10.43
  -2  -8  16  206.71    9.31
  -2   8  16  205.39    9.48
  -2   8  16  167.45   10.17
  -2   8  16  215.55   10.59
  -2   8  16  205.67   10.84
  -2   8  15   13.52    1.95
  -2  -8  15    9.82    2.19
  -2  -8  15    8.50    2.99
  -2   8  15   10.02    1.89
  -2   8  15   11.16    1.35
  -2  -8  15   12.44    1.34
  -2  -8  14   11.86    2.34
  -2  -8  14   14.66    1.43
  -2   8  14   13.86    1.47
  -2  -8  14   13.72    4.10
  -2   8  14   11.75    1.96
  -2   8  14   15.80    4.41
  -2   8  13  141.92   13.47
  -2  -8  13  138.11    9.35
  -2  -8  13  144.14    6.82
  -2  -8  13  116.45    9.35
  -2   8  13  136.35    8.23
  -2  -8  13  154.28   14.42
  -2  -8  12  215.69   12.49
  -2  -8  12  216.70   13.19
  -2   8  12  209.54   14.71
  -2  -8  12  212.62    9.77
  -2   8  12  202.82   16.65
  -2  -8  12  250.89   19.01
  -2   8  12  212.89   11.38
  -2   8  11    3.68    1.30
  -2  -8  11    4.37    1.33
  -2  -8  11    3.14    1.32
  -2   8  11    5.35    1.93
  -2   8  11    3.31    1.88
  -2  -8  11    3.98    2.25
  -2   8  11    4.34    1.19
  -2   8  10 1173.86   51.04
  -2  -8  10 1127.69   50.68
  -2   8  10 1282.66   54.30
   2   8 -10 1087.02   53.37
  -2   8  10 1214.56   57.12
  -2   8  10 1207.89   54.10
  -2  -8  10 1238.27   59.46
  -2   8  10 1180.99   50.17
  -2   8   9    6.55    1.42
  -2  -8   9    5.05    1.23
   2  -8  -9    6.48    1.94
   2   8  -9    3.66    1.66
  -2   8   9    7.65    2.20
  -2   8   9    6.90    2.50
  -2   8   9    9.17    2.36
  -2   8   9    6.63    1.39
  -2  -8   9    7.30    2.93
  -2   8   8  473.72   20.74
  -2   8   8  511.02   25.34
  -2   8   8  517.47   27.53
   2   8  -8  463.38   24.09
  -2   8   8  518.63   24.66
   2  -8  -8  555.72   24.47
  -2  -8   8  456.59   21.82
  -2   8   8  464.25   21.96
  -2  -8   7    0.94    0.49
   2   8  -7    0.28    0.72
  -2   8   7    1.45    1.06
  -2  -8   7    0.65    1.31
  -2   8   7   -0.36    1.02
  -2   8   6    1.38    1.13
  -2  -8   6    3.44    0.76
  -2   8   6    1.03    0.94
   2   8  -6    1.85    0.93
   2  -8  -6    1.39    0.52
  -2  -8   6    1.84    1.59
  -2  -8   5   58.48    7.38
  -2   8   5   59.96    3.50
   2   8  -5   43.68    3.94
   2  -8  -5   64.32    3.61
  -2   8   5   63.29    5.04
  -2  -8   5   56.23    3.49
  -2   8   4    4.43    0.76
   2  -8  -4    2.45    0.66
  -2   8   4    5.57    1.30
  -2  -8   4    2.22    0.51
  -2   8   3  134.51    7.62
  -2   8   3  123.81    6.15
   2  -8  -3  126.79    6.40
  -2   8   2  354.82   16.54
   2  -8  -2  351.43   15.59
  -2   8   1   32.51    2.60
   2   8  -1   28.46    3.08
   2  -8  -1   29.95    2.22
   2  -8   0    2.96    0.76
   2   8   0    4.78    1.28
   2   8   0    4.16    0.79
  -2  -8  -1   34.18    4.34
   2   8   1   27.44    2.66
   2   8   1   32.89    3.47
   2   8   2  380.61   17.26
  -2  -8  -2  423.51   20.89
   2   8   2  360.72   18.49
   2   8   3   36.06    3.73
  -2  -8  -3   41.04    4.33
   2   8   4  134.35    9.25
   2   8   4  170.50   10.18
   2   8   5   18.29    2.90
   2   8   5   12.98    2.39
   2   8   6 1046.01   42.14
   2   8   6  899.74   45.24
   2   8   7   19.81    2.04
   2   8   7   19.75    1.79
   2   8   7   16.20    3.12
   2  -8   7   23.07    3.50
   2   8   7   19.77    1.74
   2   8   7   20.56    1.99
   2   8   8  315.83   13.55
   2   8   8  304.57   14.11
   2  -8   8  324.11   18.19
   2   8   8  285.61   13.85
   2   8   9   15.09    1.63
   2   8   9   14.65    1.89
   2   8   9   14.76    3.33
   2   8   9   15.11    1.82
   2   8  10  135.65    7.15
   2   8  10  138.99    7.73
   2   8  10  118.32   11.16
   2   8  10  135.96    7.53
   2   8  11   15.83    1.83
   2   8  11   13.89    1.79
   2   8  11   15.81    2.13
   2   8  11   14.50    1.97
   2   8  11   16.26    3.80
   2   8  12    3.86    1.02
   2   8  12    5.37    1.30
   2   8  12    4.75    1.25
   2   8  12    6.44    2.49
   2   8  13   63.63    4.67
   2   8  13   58.84    4.49
   2   8  13   73.96    5.09
   2   8  13   55.35    8.20
   2   8  13   62.74    4.85
   2   8  14  592.33   25.85
   2   8  14  616.04   26.24
   2   8  15    1.33    0.90
   2   8  15    1.38    0.85
   2   8  16   16.05    2.21
   2   8  16   20.23    2.51
   2   8  17   17.54    2.25
   2  -8  17   16.03    1.77
   2   8  17   17.35    2.13
   2  -8  18    0.41    0.21
  -2   8 -18  385.15    6.90
   2   8  18    0.28    0.23
   2   8  18  367.87    8.77
   2   8  18  340.99    7.96
  -2   8 -19   40.64    2.55
   2   8  19   40.57    3.13
   2   8  19   33.98    2.74
  -2   8 -20   17.62    1.40
   2   8  20   25.92    2.10
   2   8  21    2.11    0.54
   2   9 -22    0.43    0.31
  -2   9  22    1.02    0.39
   2   9 -21   71.91    3.92
   2   9 -20    1.91    0.71
  -2   9  20    2.36    0.72
  -2   9  20    1.62    0.74
  -2   9  19  106.73    6.70
   2   9 -19  135.88    6.61
  -2   9  19  118.22    7.15
  -2   9  19  124.61    6.82
  -2   9  18  109.07    6.81
  -2   9  18  108.74    6.98
  -2   9  18  126.31    6.88
  -2   9  17  214.09   11.60
  -2   9  17  222.31   11.83
  -2   9  17  234.19   11.54
  -2   9  16  202.15   11.04
  -2   9  16  195.96   10.94
  -2   9  16  215.79   10.92
  -2  -9  15  288.10   22.09
  -2   9  15  313.26   15.68
  -2   9  15  292.55   15.33
  -2   9  15  348.85   15.68
  -2   9  14    2.45    2.11
  -2  -9  14    1.68    1.94
  -2   9  14    1.41    0.99
  -2   9  13  164.81    9.37
  -2  -9  13  153.31   15.11
  -2   9  13  148.78   14.37
  -2   9  12  379.25   25.28
  -2   9  12  375.39   18.47
  -2  -9  12  422.90   27.26
  -2   9  11   49.87    7.34
  -2  -9  11   40.54    4.38
  -2   9  11   36.17    3.59
  -2  -9  11   40.98    7.21
  -2   9  10   -0.67    1.73
  -2   9  10    0.94    1.08
  -2  -9  10    1.66    1.66
  -2   9  10    2.87    1.01
  -2   9  10    2.13    1.56
  -2   9   9   94.06    8.53
  -2   9   9   93.23    9.75
   2  -9  -9   89.28    5.13
  -2   9   9   84.12    5.91
  -2   9   9  104.25    8.35
  -2   9   8   16.90    1.71
  -2   9   8   20.31    4.32
  -2   9   8   15.52    3.24
   2  -9  -8   22.12    1.96
  -2   9   8   22.89    3.46
  -2   9   8   17.88    1.88
  -2   9   7   19.63    1.88
  -2   9   7   19.22    2.99
  -2   9   7   21.67    1.81
  -2   9   7   12.82    2.87
   2   9  -7   14.41    1.71
   2  -9  -7   14.29    1.62
  -2  -9   7   18.69    4.60
  -2   9   6  463.65   20.74
  -2   9   6  474.99   23.42
  -2   9   6  473.90   25.01
   2   9  -6  483.21   20.96
  -2  -9   6  528.66   29.43
   2  -9  -6  476.76   20.75
  -2   9   5   33.79    3.73
  -2   9   5   37.05    4.73
  -2  -9   5   34.32    5.76
  -2   9   5   33.62    2.51
   2  -9  -5   34.70    2.60
  -2   9   4  249.03   13.03
  -2  -9   4  260.83   17.60
  -2   9   4  236.83   11.13
   2  -9  -4  246.53   11.35
  -2   9   3   14.57    2.17
  -2  -9   3   20.47    4.15
   2  -9  -3   19.44    1.84
  -2   9   3   18.53    1.62
  -2   9   2    0.36    0.30
   2  -9  -2    1.67    0.66
  -2  -9   2    1.54    1.33
   2   9  -1  146.88    9.25
  -2  -9   1  168.23   12.07
   2  -9  -1  142.44    7.36
  -2  -9   0  698.41   34.13
   2   9   0  667.03   31.26
  -2  -9  -1  155.65   10.61
   2   9   1  148.31    9.12
  -2  -9  -2   67.79    6.35
   2   9   2   56.97    4.72
  -2  -9  -3   48.52    4.96
   2   9   3   54.78    5.25
   2   9   3   46.36    3.27
   2   9   3   51.26    4.56
   2   9   4    8.51    1.13
   2   9   4    7.33    1.75
   2   9   4    6.24    1.80
   2   9   4    7.45    1.18
   2   9   5  167.22   10.99
   2   9   5  158.08    7.85
   2   9   5  158.55    7.55
   2   9   6    7.72    1.15
  -2   9  -6    9.55    1.21
   2   9   6   10.42    1.34
   2   9   6    8.48    1.09
   2   9   7  888.72   36.15
   2   9   7  801.44   36.29
   2   9   7  881.74   35.93
  -2   9  -7  845.60   35.93
   2   9   8   81.90    5.23
   2   9   8   74.59    4.94
   2   9   8   81.43    4.67
  -2   9  -8   85.10    4.72
   2   9   9   85.82    5.35
   2   9   9   79.97    4.70
   2   9   9   71.61    4.94
   2   9  10   13.80    1.96
   2   9  10   12.01    1.57
   2   9  10   11.77    1.73
   2   9  11  154.17    8.81
   2   9  11  159.98    8.21
   2   9  11  153.12    8.60
   2   9  12  122.67    7.37
   2   9  12  113.28    7.02
   2   9  13  645.94   29.09
   2   9  14  121.24    7.52
  -2   9 -15    8.13    1.38
   2   9  15   12.03    1.95
  -2   9 -16    3.54    0.95
   2   9  16    4.65    1.19
  -2   9 -17   16.45    1.66
   2   9  17   13.98    1.89
   2  -9  17   11.67    1.49
  -2   9 -18    1.31    0.55
   2   9  18    1.71    0.72
   2  -9  18    0.39    0.20
   2   9  18    2.69    0.97
   2   9  19   24.91    2.28
  -2   9 -19   21.10    1.64
   2   9  20  181.16    8.67
   2  10 -22    2.50    0.41
   2  10 -21    1.22    0.41
   2  10 -20    8.74    1.03
  -2  10  20    7.67    1.23
  -2  10  19   61.21    4.07
   2  10 -19   62.71    3.73
  -2  10  19   54.57    3.92
  -2  10  19   60.25    4.27
  -2  10  18   76.67    5.00
   2  10 -18   81.35    4.68
  -2  10  18   72.32    4.99
  -2  10  18   77.01    5.23
  -2  10  17  175.16    9.22
  -2  10  17  159.51    9.14
   2  10 -17  177.62    8.68
  -2  10  17  161.32    9.26
  -2  10  16   15.60    2.15
  -2  10  16   16.44    2.26
  -2  10  16   17.96    2.30
   2  10 -16   17.61    1.99
  -2  10  15    3.57    1.12
  -2  10  15    3.55    1.19
  -2  10  15    3.33    1.17
  -2  10  14   70.49    9.77
  -2  10  14   85.38    5.85
  -2  10  14  101.38    6.22
  -2  10  14   89.84    6.25
  -2 -10  14   86.02   10.98
  -2  10  13   21.09    2.76
  -2 -10  13   24.06    5.70
  -2  10  13   21.18    2.47
  -2  10  13   19.64    4.89
   2 -10 -12   65.47    4.24
  -2  10  12   61.98    5.05
  -2 -10  12   60.37    9.14
  -2  10  12   65.79    4.68
  -2  10  12   72.34    9.32
   2 -10 -11   77.88    4.76
  -2 -10  11   83.98   10.78
  -2  10  11   73.51    5.62
  -2  10  11   77.10    5.13
  -2  10  11   79.08    9.63
   2 -10 -10   14.83    1.71
  -2  10  10   12.78    2.11
  -2 -10  10   15.91    4.83
  -2  10  10   16.43    1.98
  -2  10  10   16.60    3.59
  -2  10  10   17.34    4.30
  -2  10   9    4.50    1.32
  -2  10   9    2.41    0.84
  -2  10   9    0.69    1.38
  -2  10   9    3.03    1.66
   2 -10  -8  438.48   18.98
  -2 -10   8  474.96   28.94
  -2  10   8  412.93   19.09
  -2  10   8  401.13   25.63
  -2  10   8  415.09   18.78
  -2  10   8  464.27   24.64
   2 -10  -7   13.46    1.59
  -2 -10   7   14.77    4.24
  -2  10   7   11.21    1.51
  -2  10   7   10.68    3.12
  -2  10   7   14.38    1.55
  -2  10   7   12.34    3.10
   2 -10  -6 1042.94   42.41
  -2  10   6 1083.01   48.25
  -2  10   6  988.29   42.10
  -2 -10   6 1079.33   52.31
  -2  10   6  970.09   42.25
   2 -10  -5  305.19   13.45
   2  10  -5  290.60   13.39
  -2  10   5  288.77   17.79
  -2  10   5  282.01   13.10
  -2 -10   5  285.18   20.25
  -2  10   5  278.39   13.20
   2 -10  -4  156.27    7.98
   2  10  -4  158.03    7.97
  -2  10   4  157.22    7.73
  -2 -10   4  169.77   13.90
  -2  10   4  152.00    7.72
   2 -10  -3  394.42   17.53
   2  10  -3  379.35   17.41
  -2 -10   3  404.49   24.17
  -2  10   3  398.32   17.21
   2  10  -2  217.65   13.01
   2  10  -2  225.29   10.72
   2 -10  -2  228.80   10.86
  -2 -10   2  243.56   16.48
   2  10  -1   97.95    7.51
   2  10  -1   92.73    5.42
  -2 -10   1   99.98    9.47
   2 -10  -1  113.36    5.86
   2  10   0  872.49   37.81
   2  10   0  938.86   41.29
  -2 -10   0  995.41   44.45
   2  10   1  263.00   12.47
   2  10   1  282.14   15.63
  -2 -10  -1  303.35   17.40
   2  10   2  131.80    9.61
   2  10   2  139.12    7.11
  -2 -10  -2  151.07   10.65
  -2  10  -3   14.86    1.46
   2  10   3   10.92    1.39
   2  10   3   13.38    2.65
   2  10   4   16.73    1.72
   2  10   4   19.70    3.33
   2  10   4   16.87    1.84
   2  10   4   15.27    1.39
  -2  10  -4   14.58    1.49
  -2  10  -5   26.35    2.09
   2  10   5   24.08    2.35
   2  10   5   26.71    4.00
   2  10   5   25.20    2.21
   2  10   5   23.68    2.12
   2  10   5   24.28    1.91
   2  10   6   15.55    1.70
   2  10   6   14.87    1.51
   2  10   6   14.32    1.69
  -2  10  -6   17.02    1.65
   2  10   7  206.71   10.21
   2  10   7  218.52   10.01
   2  10   7  199.93   10.35
  -2  10  -7  216.20   10.07
   2  10   8   47.82    3.45
   2  10   8   47.43    3.62
  -2  10  -8   48.67    3.32
   2  10   8   52.60    3.41
   2  10   9   92.27    5.87
  -2  10  -9  102.00    5.56
   2  10   9   97.91    5.56
  -2  10 -10    2.33    0.78
   2  10  10    0.95    0.63
   2  10  10    1.67    0.68
   2  10  10    1.56    0.85
  -2  10 -11    2.64    0.82
   2  10  11    4.32    1.16
   2  10  11    2.67    0.85
   2  10  11    3.26    1.17
  -2  10 -12   75.28    4.61
   2  10  12   71.96    5.27
   2  10  12   69.38    5.08
  -2  10 -13   65.12    4.22
   2  10  13   64.72    4.93
   2  10  13   63.51    4.76
  -2  10 -14    5.46    1.09
   2  10  14    6.52    1.48
  -2  10 -15    3.73    0.97
   2  10  15    6.51    1.41
  -2  10 -16   80.90    4.61
   2  10  16   78.28    5.29
  -2  10 -17   10.39    1.26
   2  10  17   10.33    1.56
   2 -10  17    8.59    1.24
   2  10  17   11.47    1.76
  -2  10 -18   12.43    1.13
   2  10  18   13.42    1.66
   2  10  19   11.43    1.45
  -2  10 -19    7.55    0.82
   2  10  20  431.33   18.56
   2  11 -21   14.26    1.13
   2  11 -20    2.48    0.59
  -2  11  19   15.63    1.63
  -2  11  19   15.26    1.68
   2  11 -19   15.94    1.40
  -2  11  18    2.99    0.98
  -2  11  18    2.10    0.86
  -2  11  18    1.44    0.68
   2  11 -18    4.44    0.92
  -2  11  17   13.49    1.87
   2  11 -17   10.00    1.46
  -2  11  17   12.49    1.80
  -2  11  17   11.05    1.73
   2  11 -16   19.91    2.06
  -2  11  16   20.06    2.38
  -2  11  16   18.34    2.37
  -2  11  16   21.03    2.42
   2  11 -15  154.99    7.82
  -2  11  15  139.53    8.21
  -2  11  15  138.57    8.45
  -2  11  15  144.98    8.36
   2  11 -14   10.23    1.53
  -2 -11  14   10.36    3.61
  -2  11  14    6.58    1.55
  -2  11  14    5.91    1.39
  -2  11  13   13.15    2.16
  -2 -11  13   12.62    4.07
  -2  11  13   15.95    2.10
  -2  11  13   14.94    4.11
  -2 -11  12   23.14    5.70
  -2  11  12   15.95    2.43
  -2  11  12   17.05    2.18
  -2  11  12   22.98    5.15
   2 -11 -11   88.43    5.31
  -2  11  11   87.67    6.39
  -2 -11  11   85.60   11.42
  -2  11  11   91.32    5.70
  -2  11  11   80.60   10.17
  -2  11  10    2.26    1.11
   2 -11 -10    2.15    0.82
  -2  11  10    4.31    1.13
  -2  11  10    2.30    1.78
  -2  11  10    1.14    0.93
   2 -11  -9  212.97   10.12
  -2 -11   9  203.04   17.91
  -2  11   9  206.37   11.41
  -2  11   9  194.60   10.18
  -2  11   9  196.28   14.78
  -2  11   9  169.23   15.41
   2 -11  -8   55.32    3.72
  -2 -11   8   54.94    8.42
  -2  11   8   46.55    3.59
  -2  11   8   44.20    7.02
  -2  11   8   48.90    3.48
  -2  11   8   43.42    6.21
   2 -11  -7  416.03   17.87
  -2 -11   7  399.98   26.67
  -2  11   7  387.20   17.76
  -2  11   7  356.94   24.32
  -2  11   7  378.25   17.52
  -2  11   7  398.17   23.30
   2 -11  -6  119.93    6.70
  -2 -11   6  125.88   12.86
  -2  11   6  124.43    6.71
  -2  11   6  127.52   10.80
  -2  11   6  121.33    6.55
   2 -11  -5  317.60   14.62
  -2 -11   5  333.51   22.54
  -2  11   5  308.02   14.42
  -2  11   5  295.08   19.38
  -2  11   5  320.91   14.44
   2 -11  -4   39.08    3.05
  -2  11   4   39.43    2.90
  -2 -11   4   39.98    6.61
  -2  11   4   36.40    2.79
   2 -11  -3   81.69    4.76
  -2  11   3   74.78    4.39
   2  11  -3   68.30    6.29
   2  11  -3   69.54    3.90
  -2 -11   3   79.85    9.10
   2  11  -3   72.16    4.56
   2  11  -2    2.29    1.20
  -2 -11   2    0.61    1.22
  -2  11   2    2.75    0.70
   2  11  -2    1.96    0.70
   2  11  -1    2.01    1.11
  -2 -11   1    6.21    2.35
  -2  11   1    3.47    0.79
   2  11  -1    5.16    0.99
   2  11   0   91.20    7.62
  -2  11   0   94.43    5.18
   2  11   0   91.02    5.40
   2  11   1  638.41   33.88
   2  11   1  689.77   30.61
  -2 -11  -1  779.19   36.50
  -2  11  -1  749.46   30.41
   2  11   2   11.65    1.50
   2  11   2   11.41    2.64
  -2  11  -2   10.53    1.29
  -2 -11  -2   10.14    2.57
   2  11   3  854.35   38.74
   2  11   3  809.16   34.10
   2  11   3  745.31   33.18
  -2  11  -3  865.10   33.81
   2  11   4  118.84    9.36
   2  11   4  112.35    6.16
   2  11   4  110.54    5.52
   2  11   4   97.47    5.69
  -2  11  -4  116.02    5.87
  -2  11  -5  444.75   18.78
   2  11   5  421.72   19.36
   2  11   5  438.79   23.63
   2  11   5  433.77   19.12
   2  11   5  398.05   18.81
   2  11   5  428.08   18.46
  -2  11  -6   17.87    1.83
   2  11   6   17.95    2.12
   2  11   6   19.14    2.02
   2  11   6   18.65    1.99
   2  11   6   20.92    1.81
   2  11   7    3.91    0.82
   2  11   7    2.64    0.82
  -2  11  -7    4.99    0.97
   2  11   7    3.94    0.95
   2  11   8   25.63    2.40
   2  11   8   20.47    2.28
   2  11   8   23.47    2.11
  -2  11  -8   22.98    2.13
   2  11   9   43.03    3.61
   2  11   9   48.67    3.34
  -2  11  -9   47.48    3.32
   2  11  10   61.06    4.55
   2  11  10   65.49    4.22
  -2  11 -10   65.88    4.15
  -2  11 -11  132.78    6.98
   2  11  11  127.27    7.76
   2  11  11  129.06    7.61
  -2  11 -12   48.10    3.43
   2  11  12   51.76    4.16
   2  11  12   46.20    3.90
  -2  11 -13   75.42    4.66
   2  11  13   78.80    5.46
   2  11  13   78.85    5.38
  -2  11 -14   36.79    2.72
   2  11  14   28.08    2.97
  -2  11 -15  374.24   16.77
   2  11  15  388.26   17.87
  -2  11 -16   17.32    1.65
   2 -11  17   16.33    1.61
  -2  11 -17   16.94    1.48
  -2  11 -18   20.58    1.25
   2  11  18   29.04    2.23
   2  11  19  276.27   12.54
   2  12 -20    9.30    0.92
   2  12 -19   16.90    1.46
  -2  12  19   16.66    1.69
  -2  12  18   56.17    3.62
   2  12 -18   50.17    3.05
  -2  12  18   38.91    3.07
  -2  12  18   45.90    3.38
  -2  12  17  277.28   12.86
  -2  12  17  254.79   12.66
   2  12 -17  282.09   12.20
  -2  12  17  238.67   12.55
  -2  12  16  178.50    9.49
  -2  12  16  160.69    9.41
  -2  12  15   71.06    4.82
  -2  12  15   64.84    4.91
   2  12 -15   66.91    4.31
  -2  12  14    8.32    1.52
  -2  12  14    6.00    1.44
   2  12 -14    8.17    1.40
  -2  12  13  132.46    8.34
  -2 -12  13  134.30   14.21
   2  12 -13  141.69    7.42
  -2  12  13  121.85   12.89
  -2  12  13  128.94    7.67
  -2  12  13  144.49    8.17
  -2  12  12    1.65    1.35
  -2  12  12    3.20    1.05
  -2 -12  12    4.63    2.83
  -2  12  12    2.49    1.20
  -2  12  11  137.30   13.68
  -2  12  11  125.95    8.38
  -2 -12  11  137.48   14.51
  -2  12  11  136.57    7.66
  -2  12  10   53.19    7.10
  -2  12  10   56.69    8.43
  -2  12  10   57.16    5.04
   2 -12 -10   60.35    4.09
  -2  12  10   60.24    4.32
  -2  12   9   61.32    8.49
  -2  12   9   56.87    7.46
  -2  12   9   56.70    5.04
  -2 -12   9   51.92    8.61
   2 -12  -9   62.25    4.11
  -2  12   9   53.83    4.08
  -2  12   8  137.82   13.15
  -2  12   8  132.99    7.37
  -2  12   8  163.24   12.97
  -2 -12   8  137.01   14.25
   2 -12  -8  143.36    7.54
  -2  12   8  133.78    7.57
  -2  12   7  270.34   13.03
  -2  12   7  289.05   19.07
  -2  12   7  237.98   19.17
  -2 -12   7  298.70   22.03
   2 -12  -7  291.91   13.27
  -2  12   7  269.15   13.17
  -2  12   6  174.76   14.95
  -2  12   6  174.52   13.96
  -2  12   6  174.27    8.94
  -2 -12   6  165.90   15.56
   2 -12  -6  180.98    9.14
  -2  12   6  177.89    9.05
  -2  12   5  118.57    6.59
  -2 -12   5  136.42   13.17
   2 -12  -5  124.91    6.82
  -2  12   5  116.26    6.54
  -2  12   4  116.62    6.32
   2  12  -4   95.62    8.20
  -2 -12   4  111.94   11.68
   2 -12  -4  117.25    6.50
   2  12  -3    3.92    1.38
  -2  12   3    4.68    0.99
   2  12  -2  389.19   21.87
  -2  12   2  419.36   18.56
  -2 -12   2  461.64   26.39
   2  12  -1    1.89    1.16
  -2 -12   1    1.79    1.54
  -2  12   1    1.93    0.66
   2  12   0  519.91   23.10
   2  12   0  499.19   26.67
  -2  12   0  526.44   22.74
  -2 -12   0  540.74   29.21
   2  12   1  150.66    8.14
   2  12   1  158.03   11.39
  -2 -12  -1  152.85   12.07
  -2  12  -1  159.93    7.91
  -2  12  -2   50.81    3.49
   2  12   2   54.46    6.09
   2  12   2   58.50    3.94
  -2  12  -3  131.50    6.72
   2  12   3  123.97   10.15
   2  12   3  123.57    7.01
   2  12   4    5.81    1.21
  -2  12  -4    5.29    0.99
   2  12   4    4.23    0.75
   2  12   4    4.60    1.77
   2  12   5    4.58    0.81
   2  12   5    2.76    0.83
  -2  12  -5    3.18    0.82
   2  12   5    2.85    0.91
   2  12   6   11.42    1.61
   2  12   6   11.62    1.32
   2  12   6   10.25    1.45
  -2  12  -6   13.43    1.54
   2  12   7  195.66    9.83
   2  12   7  180.32    9.64
  -2  12  -7  197.52    9.42
   2  12   7  193.02    9.23
  -2  12  -8    2.79    0.81
   2  12   8    2.15    0.85
   2  12   8    1.48    0.84
   2  12   8    3.50    0.83
   2  12   9  596.31   26.79
   2  12   9  598.88   26.11
  -2  12  -9  618.80   26.18
   2  12  10  290.54   14.36
  -2  12 -10  299.35   13.67
   2  12  11   10.67    1.74
  -2  12 -11    8.79    1.34
  -2  12 -12   23.77    2.20
   2  12  12   27.61    2.87
   2  12  12   24.44    2.66
  -2  12 -13  330.59   15.13
   2  12  13  347.36   16.29
  -2  12 -14    2.02    0.67
  -2  12 -15    4.05    0.81
  -2  12 -16    1.48    0.52
   2 -12  16    1.87    0.76
   2  12  16    0.98    0.72
  -2  12 -17    7.18    0.86
   2 -12  17    8.51    1.06
   2  13 -19    2.93    0.54
   2  13 -18   16.94    1.45
  -2  13  18   13.70    1.55
  -2  13  18   17.33    1.77
  -2  13  17  151.27    7.81
  -2  13  17  130.29    7.60
  -2  13  16  307.44   14.57
  -2  13  16  286.34   14.64
  -2  13  15   -0.30    0.93
  -2  13  15    1.15    0.80
   2  13 -15    1.31    0.72
  -2  13  15    0.14    0.65
  -2  13  14   33.59    3.41
   2  13 -14   41.41    3.03
  -2  13  14   42.50    3.54
  -2  13  14   38.70    3.23
  -2  13  13  134.08    8.55
   2  13 -13  157.46    7.76
  -2  13  13  147.06    8.33
  -2  13  13  140.09    7.98
  -2  13  12  176.36    9.76
  -2  13  12  192.32   10.22
   2  13 -12  197.29    9.56
  -2  13  12  189.95   10.83
  -2  13  11   81.39    6.33
  -2  13  11   91.41    5.67
   2  13 -11   89.78    5.37
  -2  13  11   93.42   10.63
  -2  13  10  122.85   11.58
  -2  13  10   99.22   11.42
  -2  13  10  114.52    7.82
  -2 -13  10  131.61   14.07
  -2  13  10  113.60    6.74
  -2  13   9    3.15    1.82
  -2  13   9   -0.65    1.84
  -2  13   9    1.18    0.74
   2 -13  -9    1.56    0.74
  -2 -13   9    1.87    1.87
  -2  13   9    1.26    1.05
  -2  13   8   15.89    1.90
  -2  13   8   18.55    4.51
  -2  13   8   13.06    3.68
  -2 -13   8   22.09    5.56
  -2  13   8   17.60    2.06
   2 -13  -8   15.98    1.91
  -2  13   7   23.45    2.38
  -2 -13   7   23.16    5.53
  -2  13   7   21.20    4.81
  -2  13   7   25.25    2.41
  -2  13   7   29.28    5.30
  -2  13   6   34.14    6.25
  -2  13   6   43.78    3.36
  -2 -13   5  249.55   19.30
  -2  13   5  237.70   11.63
  -2 -13   4   41.32    6.79
  -2  13   4   35.03    2.82
  -2 -13   3   11.51    3.54
  -2  13   3   10.02    1.45
   2  13  -3    9.14    2.19
  -2  13   2    0.84    0.59
  -2 -13   2    0.67    1.34
   2  13  -2    1.19    0.80
  -2 -13   1  262.79   17.82
  -2  13   1  244.76   11.37
  -2  13   0    2.86    0.82
  -2 -13   0    0.57    1.15
   2  13   0    0.43    0.99
   2  13   1   -0.45    0.89
  -2  13  -1    0.23    0.49
   2  13   2   57.48    6.50
  -2  13  -2   54.88    3.70
   2  13   3   28.76    2.69
   2  13   3   26.36    4.38
  -2  13  -3   24.28    2.24
   2  13   4   22.26    4.09
   2  13   4   21.80    2.33
  -2  13  -4   20.68    2.00
   2  13   5  173.57    9.03
  -2  13  -5  190.57    8.68
   2  13   6   79.23    5.14
   2  13   6   91.61    4.92
   2  13   6   89.65    5.62
  -2  13  -6  101.51    5.34
   2  13   7  192.46   10.24
   2  13   7  211.22    9.85
   2  13   7  215.67   10.63
  -2  13  -7  212.80   10.10
  -2  13  -8  143.82    7.26
   2  13   8  131.22    7.51
   2  13   8  138.85    7.06
   2  13   9  111.75    6.57
  -2  13  -9  111.68    6.10
   2  13  10   25.74    2.65
  -2  13 -10   27.54    2.33
  -2  13 -11   32.06    2.53
  -2  13 -12  387.57   17.16
  -2  13 -13  173.05    8.37
  -2  13 -14   12.46    1.37
  -2  13 -15    1.92    0.56
   2 -13  16   24.23    1.99
   2  13  16   27.77    2.38
  -2  13 -16   21.25    1.60
   2  13  17    8.86    1.19
   2 -13  17    5.27    0.75
   2  14 -18    6.73    0.79
   2  14 -17   40.81    2.52
  -2  14  17   38.11    2.83
   2  14 -16  102.20    5.03
  -2  14  16   96.68    5.49
   2  14 -15    3.75    0.84
  -2  14  15    4.17    1.02
  -2  14  15    4.19    1.06
  -2  14  15    5.20    1.02
  -2  14  14   18.73    2.15
  -2  14  14   17.46    2.20
  -2  14  14   16.75    1.93
   2  14 -14   18.38    1.81
  -2  14  13  181.37    9.44
  -2  14  13  172.52    9.07
   2  14 -13  194.48    8.90
  -2  14  12   61.96    4.41
   2  14 -12   56.85    3.82
  -2  14  12   55.24    4.68
  -2  14  12   53.62    3.96
   2  14 -11   21.72    2.13
  -2  14  11   17.94    2.21
  -2  14  11   16.30    2.02
  -2  14  11   18.08    2.61
   2  14 -10  345.38   15.42
  -2  14  10  317.06   16.91
  -2  14  10  326.49   15.54
  -2  14   9  455.80   21.72
  -2 -14   9  486.76   30.72
  -2  14   9  458.51   26.99
  -2 -14   8   70.55    9.99
  -2  14   8   73.38    4.77
  -2  14   8   68.49    8.49
  -2  14   8   67.95    8.76
  -2 -14   7    1.76    2.70
  -2  14   7    5.87    1.23
  -2  14   7    5.22    2.29
  -2 -14   6  159.43   15.03
  -2  14   6  148.82    7.76
  -2 -14   5   83.09   10.45
  -2  14   5   80.90    9.67
  -2  14   5   91.79    5.49
  -2 -14   4    1.55    1.55
  -2  14   4    4.16    1.04
  -2  14   4    4.70    2.33
  -2 -14   3    4.36    2.06
  -2  14   3    3.97    1.02
  -2  14   3    2.00    1.55
   2  14  -2    4.16    1.54
  -2  14   2    5.28    2.30
   2 -14  -2    8.72    1.51
  -2 -14   2    5.45    2.24
  -2  14   2    5.94    1.17
   2  14  -1  182.95   13.80
  -2  14   1  236.97   11.01
  -2  14   0   83.82    5.03
   2  14   0   76.63    7.56
  -2  14  -1    5.09    1.06
   2  14   1    6.12    1.97
   2  14   2  223.56   16.47
  -2  14  -2  288.43   12.93
  -2  14  -3    1.60    0.70
   2  14   3    1.50    1.00
  -2  14  -4   10.79    1.45
  -2  14  -5  375.24   16.88
  -2  14  -6  369.85   15.13
   2  14   6  293.27   14.76
   2  14   7    1.57    0.70
   2  14   7    0.59    0.44
   2  14   7    1.80    0.87
  -2  14  -7    1.18    0.66
   2  14   8   41.23    3.23
  -2  14  -8   43.35    3.09
  -2  14  -9  160.31    8.02
  -2  14 -10  234.36   10.98
  -2  14 -11   98.29    5.33
  -2  14 -12    4.91    0.94
  -2  14 -13  120.72    6.03
   2  14  14  138.59    7.29
  -2  14 -14  130.52    6.35
   2  14  15  195.32    9.01
   2 -14  15  198.94    8.71
   2 -14  16  160.70    7.81
   2  14  16  181.80    8.29
   2  15 -17    0.81    0.32
  -2  15  16    0.18    0.39
   2  15 -16    0.30    0.38
   2  15 -15   97.94    4.83
  -2  15  15   80.18    5.05
  -2  15  15   92.52    5.18
   2  15 -14   56.73    3.42
  -2  15  14   49.39    3.80
  -2  15  14   55.70    3.74
   2  15 -13   21.41    1.94
  -2  15  13   19.70    2.35
  -2  15  13   20.60    2.14
   2  15 -12   20.98    2.04
  -2  15  12   17.90    2.43
  -2  15  12   24.03    2.35
   2  15 -11   24.20    2.17
  -2  15  11   19.53    2.59
  -2  15  11   18.26    2.14
  -2  15  10  187.58   11.30
  -2  15  10  192.32   10.24
   2  15  -9   12.98    1.68
  -2  15   9    8.59    1.95
  -2  15   9    9.41    1.49
   2  15  -8   11.01    1.62
  -2  15   8   12.29    2.26
  -2  15   7    2.01    0.79
  -2  15   6   19.88    2.13
  -2  15   5  209.48   17.63
  -2  15   5  268.28   12.50
  -2  15   4  135.87   12.72
  -2  15   4  134.89    7.42
  -2  15   3  656.31   38.15
  -2  15   3  731.56   31.09
  -2  15   2    5.25    1.21
  -2  15   2    3.35    1.90
   2 -15  -1  272.68   13.31
  -2  15   1  277.43   12.90
  -2  15   0  184.87    9.36
  -2  15  -1    3.59    0.95
   2  15   1    3.30    1.45
  -2  15  -2    1.52    0.71
   2  15   2    4.38    1.69
  -2  15  -3    6.65    1.16
  -2  15  -4    0.11    0.55
  -2  15  -5    2.08    0.77
  -2  15  -6   63.23    4.02
  -2  15  -7   40.62    2.97
  -2  15  -8    4.35    0.96
  -2  15  -9   93.20    5.14
  -2  15 -10    2.29    0.74
  -2  15 -11  234.48   10.73
  -2  15 -12    4.50    0.82
  -2  15 -13   12.32    1.20
   2  15  13   12.50    1.49
  -2  15 -14   25.60    1.77
   2  15  14   33.17    2.37
   2 -15  15    3.24    0.70
   2  15  15    3.71    0.71
   2  16 -16    0.44    0.30
  -2  16  15    1.83    0.54
   2  16 -15    2.89    0.56
   2  16 -14   23.43    1.77
  -2  16  14   20.35    1.93
  -2  16  14   21.02    1.85
  -2  16  13    1.69    0.72
  -2  16  13    1.15    0.59
   2  16 -13    1.87    0.60
   2  16 -12   99.17    5.21
  -2  16  12   92.82    5.93
  -2  16  12   94.02    5.34
   2  16 -11   81.30    4.56
  -2  16  11   75.27    5.37
  -2  16  11   75.07    4.61
  -2  16  10  160.99    9.64
  -2  16  10  156.61    8.46
  -2  16   9    2.22    1.09
   2  16  -9    2.91    0.87
  -2  16   9    1.68    0.68
  -2  16   8    0.71    0.91
  -2  16   8    0.88    0.57
   2  16  -8    1.19    0.76
   2  16  -7  200.74    9.33
  -2  16   7  164.25    8.71
  -2  16   6   12.34    1.63
  -2  16   6    8.65    1.23
  -2  16   5   80.45    4.99
  -2  16   4   36.03    5.85
  -2  16   4   30.03    2.67
  -2  16   3  111.66   11.47
  -2  16   3  133.14    7.12
  -2  16   2  305.67   21.18
  -2  16   2  331.34   15.18
   2 -16  -1  222.53   10.99
  -2  16   1  214.85   10.57
  -2  16   1  185.36   15.48
   2 -16   0  483.55   21.89
  -2  16   0  500.78   21.43
  -2  16  -1   33.70    2.75
  -2  16  -1   32.05    5.35
  -2  16  -2   93.83    5.41
  -2  16  -3   52.35    3.56
  -2  16  -4  179.80    8.89
  -2  16  -5    0.82    0.59
  -2  16  -6   35.73    2.70
  -2  16  -7    7.50    1.14
  -2  16  -8  331.53   14.77
  -2  16  -9    2.38    0.69
  -2  16 -10    3.05    0.70
   2  16  10    0.26    0.18
   2  16  11    0.42    0.22
  -2  16 -11   15.17    1.24
  -2  16 -12   46.09    2.67
  -2  16 -13    3.05    0.54
   2 -16  13    7.91    1.03
   2 -16  14    2.46    0.64
   2 -16  14    2.57    0.63
   2  17 -15    1.47    0.36
   2  17 -14    4.51    0.68
   2  17 -13   77.13    2.58
  -2  17  13   58.68    2.24
   2  17 -12   30.01    2.08
  -2  17  12   22.95    2.22
  -2  17  12   25.22    1.90
  -2  17  11   99.66    6.16
  -2  17  11   96.07    5.30
   2  17 -10   25.28    1.93
  -2  17  10   18.78    2.28
   2  17  -9   12.58    1.40
  -2  17   9   10.61    1.84
   2  17  -8  395.36    7.56
  -2  17   8  346.54    9.95
  -2  17   7  155.54    9.64
   2  17  -7  167.89    8.34
   2  17  -6  119.14    6.45
  -2  17   6  113.18    6.27
   2  17  -5  168.58    8.68
  -2  17   5  168.76    8.49
  -2  17   4    7.20    1.24
  -2  17   3  216.72   10.50
  -2  17   2    2.52    0.83
  -2  17   1   38.77    2.97
  -2  17   0   62.04    3.99
   2 -17   0   61.50    4.28
  -2  17  -1    2.39    0.81
   2 -17   1    2.11    0.91
  -2  17  -2   44.91    3.21
   2 -17   2   48.10    3.68
  -2  17  -3  259.47   12.04
  -2  17  -4  456.13   19.91
  -2  17  -5   15.57    1.62
  -2  17  -6  175.99    8.43
  -2  17  -7   39.84    2.69
  -2  17  -8    5.00    0.83
  -2  17  -9    1.98    0.56
  -2  17 -10    7.81    0.92
  -2  17 -11   12.70    1.13
   2 -17  11   18.51    1.65
   2 -17  12    7.65    1.13
   2 -17  12    8.62    1.05
   2 -17  13    8.99    0.96
   2  18 -13    0.47    0.28
   2  18 -12   23.30    1.64
  -2  18  11    0.47    0.43
   2  18 -11    0.74    0.39
  -2  18  10   28.34    2.56
   2  18 -10   33.48    2.25
  -2  18   9   41.91    3.48
   2  18  -9   50.66    3.05
  -2  18   8   20.84    2.47
   2  18  -8   24.72    2.02
  -2  18   7   78.54    5.61
   2  18  -7   88.37    4.83
  -2  18   6   15.17    2.24
   2  18  -6   14.44    1.64
  -2  18   5   12.51    1.45
   2  18  -5   11.94    1.53
  -2  18   4   73.07    4.24
   2  18  -4   69.44    4.41
  -2  18   3    5.86    1.04
   2  18  -3    8.48    1.32
  -2  18   2  158.13    7.86
  -2  18   1   87.63    4.91
  -2  18   0    0.76    0.58
  -2  18  -1    1.11    0.59
   2 -18   1    0.68    0.62
   2 -18   2   28.39    2.50
  -2  18  -2   28.64    2.26
   2 -18   3   48.36    3.50
  -2  18  -3   48.56    3.14
   2 -18   4  206.22   10.23
  -2  18  -4  209.48    9.68
   2 -18   5   63.96    4.06
  -2  18  -5   62.46    3.55
   2 -18   5   54.00    3.45
   2 -18   6    4.53    1.09
  -2  18  -6    5.77    0.88
   2 -18   7   17.23    1.83
  -2  18  -7   13.90    1.33
   2 -18   7   17.15    1.56
  -2  18  -8   99.78    5.10
   2 -18   8  104.87    5.43
   2 -18   9    3.57    0.91
  -2  18  -9    1.92    0.47
   2 -18   9    3.01    0.66
   2 -18  10  576.65   20.79
   2 -18  10  623.42   21.33
   2 -18  11   16.56    1.35
   2 -18  11   16.21    1.51
   2  19 -11   98.36    4.63
  -2  19  10    0.32    0.17
   2  19 -10   11.72    0.96
  -2  19   9    6.94    1.07
   2  19  -9   10.68    1.07
  -2  19   8   26.96    2.44
   2  19  -8   34.74    2.22
  -2  19   7  156.20    8.77
   2  19  -7  187.61    8.27
  -2  19   6   49.38    3.82
   2  19  -6   55.32    3.31
  -2  19   5  130.85    7.77
   2  19  -5  145.65    7.02
   2  19  -4   14.46    1.54
  -2  19   3    2.66    0.63
   2  19  -3    2.88    0.81
  -2  19   2    9.73    1.14
   2  19  -2   11.79    1.43
  -2  19   1   50.60    3.07
  -2  19   0    2.56    0.64
  -2  19  -1   80.11    4.29
  -2  19  -2   11.98    1.23
  -2  19  -3  217.18    9.78
   2 -19   3  216.33   10.07
  -2  19  -4   14.74    1.31
   2 -19   4   14.97    1.54
   2 -19   5    1.10    0.57
  -2  19  -5    1.34    0.47
   2 -19   6    4.29    0.82
  -2  19  -6    3.46    0.62
   2 -19   7    1.40    0.53
  -2  19  -7    0.91    0.34
   2 -19   7    0.88    0.36
   2 -19   8    0.92    0.46
   2 -19   8    1.21    0.39
   2 -19   9  128.69    6.15
   2  20  -9  131.59    5.90
   2  20  -8    0.44    0.33
  -2  20   7  124.42    6.92
   2  20  -7  171.96    6.90
  -2  20   6    2.33    0.66
   2  20  -6    2.88    0.60
  -2  20   5    0.49    0.48
   2  20  -5    0.74    0.41
  -2  20   4    1.07    0.62
   2  20  -4    1.12    0.49
  -2  20   3   39.82    3.11
   2  20  -3   41.31    2.60
   2  20  -2    3.86    0.75
  -2  20   1   12.77    1.16
   2  20  -1   17.65    1.51
  -2  20   0   19.53    1.44
  -2  20  -1    2.22    0.50
  -2  20  -2   18.22    1.33
  -2  20  -3  205.40    8.93
  -2  20  -4  131.58    5.88
   2  21  -5   26.70    1.58
   2  21  -4   67.88    3.34
  -2  21   3  241.72   11.91
   2  21  -3  301.10   11.76
  -2  21   2    1.20    0.52
   2  21  -2    2.22    0.48
   2  21  -1  161.49    6.81
  -2  21   1  135.06    7.04
  -2  21   0  135.62    6.58
  -3   0  24    1.35    0.63
  -3   0  24    1.55    0.69
  -3   0  23    0.30    0.67
  -3   0  23    0.26    0.64
  -3   0  23    0.30    0.41
  -3   0  22  179.61    9.93
  -3   0  22  179.33    9.73
  -3   0  22  186.39    9.72
  -3   0  22  178.73    8.73
  -3   0  21    0.94    0.97
  -3   0  21    1.09    0.56
  -3   0  20    4.76    1.45
  -3   0  20    5.05    1.11
  -3   0  19    6.29    2.02
  -3   0  19    5.10    1.14
  -3   0  18   14.79    3.43
  -3   0  18   16.39    2.45
  -3   0  17   -0.48    1.11
  -3   0  17    0.37    0.42
  -3   0  16  233.76   15.12
  -3   0  16  213.26   13.75
  -3   0  15    0.43    0.71
  -3   0  15    0.36    1.03
  -3   0  14  268.68   15.85
  -3   0  14  235.02   14.71
  -3   0  13   -0.38    0.88
  -3   0  13    0.89    0.66
  -3   0  12    6.98    2.15
  -3   0  12   10.34    1.51
  -3   0  11    0.37    0.96
  -3   0  11    0.39    0.78
  -3   0  10  243.18   14.54
  -3   0   9    1.50    1.04
  -3   0   8   70.98    5.83
  -3   0   7    0.23    0.64
  -3   0   6    3.94    1.17
   3   0  -5    0.75    1.44
  -3   0   5    1.00    0.33
   3   0  -4  938.53   37.90
  -3   0   4  824.38   34.51
   3   0  -3    0.21    0.88
   3   0  -2 3583.14  147.23
   3   0  -1    0.97    0.95
   3   0   0  630.56   28.62
   3   0   1    0.21    0.78
   3   0   2  378.20   18.48
   3   0   2  358.10   18.92
   3   0   3    0.61    0.86
   3   0   3    1.50    0.67
   3   0   4  261.45   15.74
   3   0   4  282.65   13.50
   3   0   5    1.17    1.19
   3   0   5   -0.17    0.40
   3   0   6   29.74    4.65
   3   0   7    0.24    0.68
   3   0   7   -0.51    1.55
   3   0   8  444.51   22.06
   3   0   8  442.42   25.97
   3   0   9    0.31    0.87
   3   0   9    0.36    0.34
   3   0   9    0.65    1.29
   3   0   9    0.97    0.77
   3   0   9   -0.14    0.66
   3   0  10  515.44   24.02
   3   0  10  589.15   32.21
   3   0  10  513.45   22.32
   3   0  10  545.22   23.24
   3   0  10  508.57   23.64
   3   0  10  578.33   26.91
   3   0  11    0.70    0.70
   3   0  11    0.14    0.56
   3   0  11    1.20    0.80
   3   0  11   -0.80    1.61
   3   0  12    1.14    0.82
   3   0  12    1.92    0.85
   3   0  12   -0.22    0.79
   3   0  12   -0.88    1.76
   3   0  13   -0.20    0.82
   3   0  13    0.64    0.74
   3   0  13    0.93    0.89
   3   0  13    0.95    1.91
   3   0  14   47.67    3.93
   3   0  14   54.13    4.56
   3   0  14   44.92    4.48
   3   0  14   51.62    9.04
   3   0  15    0.66    1.05
   3   0  15    2.75    1.12
   3   0  15   -1.05    1.22
   3   0  15    0.26    1.25
   3   0  16    7.87    1.89
   3   0  16    6.72    1.48
   3   0  16    6.38    3.26
   3   0  16    8.21    2.09
   3   0  17    1.26    1.08
   3   0  17    0.31    0.65
   3   0  17    0.25    1.29
   3   0  18    2.96    0.90
   3   0  18    2.78    1.29
   3   0  19    0.21    0.96
   3   0  20   26.27    2.83
   3   0  21   -0.26    0.71
  -3  -1  24   22.69    2.00
  -3  -1  24   24.37    2.17
  -3  -1  23   19.87    2.18
  -3   1  23   15.10    1.47
  -3  -1  23   17.67    2.04
  -3  -1  22  215.19   11.32
  -3   1  22  206.90   10.08
  -3  -1  22  214.80   11.05
  -3  -1  22  222.34   11.17
  -3   1  22  220.34   11.09
  -3   1  21  235.92   11.53
  -3  -1  21  267.14   12.91
  -3   1  21  239.28   12.59
  -3   1  20  127.51    7.07
  -3  -1  20  139.11    8.38
  -3   1  20  132.08    8.12
  -3   1  19    3.93    1.89
  -3   1  19    5.30    1.11
  -3  -1  19    4.39    1.42
  -3   1  19    3.60    1.35
  -3   1  18    1.50    1.29
  -3   1  18    2.73    1.35
  -3  -1  18    4.40    1.44
  -3   1  18    3.81    1.32
  -3   1  17   63.16    7.04
  -3  -1  17   46.48    6.84
  -3   1  17   59.35    6.22
  -3   1  17   64.11    4.96
  -3   1  16   25.20    4.18
  -3  -1  16   25.68    4.59
  -3   1  16   18.19    3.36
  -3  -1  16   16.19    2.94
  -3   1  15  306.13   17.66
  -3   1  15  282.11   18.63
  -3  -1  15  261.23   15.70
  -3   1  15  260.84   16.41
  -3  -1  15  307.23   18.78
  -3   1  14  347.72   18.56
  -3  -1  14  282.88   16.57
  -3   1  14  279.68   17.16
  -3   1  14  314.04   19.31
  -3  -1  14  299.41   14.72
  -3   1  13  556.15   27.01
  -3  -1  13  496.83   23.04
  -3   1  13  526.20   27.56
  -3   1  12  212.39   13.83
  -3   1  12  172.66   12.45
  -3  -1  12  185.86    9.49
  -3   1  12  182.41    9.44
  -3   1  11  416.90   22.19
  -3   1  11  411.52   22.66
  -3   1  10  691.88   32.84
  -3  -1  10  659.97   32.35
  -3   1  10  707.59   33.39
  -3  -1   9  394.85   19.90
  -3   1   9  383.17   20.41
  -3   1   8   99.55    7.39
  -3  -1   8   93.67    6.79
  -3  -1   7  653.44   29.68
  -3   1   7  664.41   30.56
  -3  -1   6    4.06    1.07
  -3   1   6    4.51    0.84
   3  -1  -5  537.59   25.35
  -3  -1   5  551.21   23.85
  -3   1   5  523.85   22.83
   3  -1  -4    3.81    1.45
   3  -1  -3  443.98   21.12
   3  -1  -2    4.53    1.28
   3  -1  -1  173.74    9.73
   3  -1   0   39.81    3.73
   3  -1   1   89.55    6.27
   3  -1   1   89.77    6.85
   3  -1   2  175.00   10.33
   3  -1   2  182.50   11.08
   3  -1   3  238.95   13.91
   3   1   3  237.81   11.73
   3  -1   4  553.26   28.04
   3   1   4  576.60   25.45
   3  -1   5  359.26   20.36
   3   1   5  371.57   17.57
   3  -1   6   97.09    8.72
   3  -1   7  392.92   22.97
   3  -1   8   85.44    9.10
   3   1   8   89.99    6.84
   3   1   9   37.96    2.47
   3  -1   9   35.78    3.23
   3  -1   9   36.11    6.13
   3   1   9   39.77    4.38
   3  -1   9   32.09    2.95
   3  -1  10    4.32    2.37
   3  -1  10    8.08    1.61
   3   1  10    7.91    1.04
   3   1  10    9.68    2.32
   3  -1  10    9.15    1.56
   3  -1  10    7.76    1.25
   3  -1  11   69.59    4.58
   3  -1  11   71.81    5.00
   3  -1  11   71.34    5.28
   3  -1  11   76.48    9.86
   3   1  11   64.40    3.91
   3  -1  12   18.34    2.11
   3   1  12   15.32    2.04
   3  -1  12   17.12    2.31
   3  -1  12   16.12    2.44
   3  -1  12   16.57    4.98
   3  -1  13  242.17   11.72
   3   1  13  232.54   11.76
   3  -1  13  220.08   12.16
   3  -1  13  213.55   19.03
   3  -1  13  221.20   12.50
   3  -1  14  405.76   18.96
   3   1  14  408.69   19.12
   3  -1  14  403.31   19.65
   3  -1  14  399.16   20.09
   3  -1  14  448.69   29.83
   3  -1  15 1215.15   49.27
   3   1  15 1140.85   49.27
   3  -1  15 1145.70   49.93
   3  -1  15 1096.51   50.37
   3  -1  15 1141.51   61.52
   3  -1  16  413.84   19.43
   3  -1  16  424.82   20.36
   3   1  16  420.59   19.69
   3  -1  16  432.88   20.96
   3  -1  16  407.90   29.66
   3   1  17   20.67    2.38
   3  -1  17   21.53    2.32
   3  -1  17   16.65    2.58
   3  -1  17   22.64    3.10
   3   1  18    2.01    0.91
   3  -1  18    2.05    1.32
   3   1  19  145.50    7.66
   3  -1  19  148.24    8.83
   3  -1  20    2.86    1.05
   3  -1  21  249.37   12.10
  -3  -2  24    1.37    0.55
  -3   2  24    1.04    0.58
  -3   2  24    2.06    0.73
  -3  -2  24    1.37    0.61
  -3  -2  23   53.47    3.79
  -3   2  23   43.38    3.65
  -3   2  23   49.77    3.51
  -3  -2  23   49.50    3.51
  -3   2  23   50.60    3.66
  -3  -2  23   43.95    2.85
  -3   2  23   50.35    3.02
  -3  -2  22   92.13    5.92
  -3   2  22   85.49    5.97
  -3   2  22   93.43    5.79
  -3  -2  22   88.31    5.64
  -3   2  22   82.12    5.69
  -3  -2  22   91.23    4.89
  -3   2  22   87.77    4.95
  -3  -2  21  373.60   16.80
  -3   2  21  339.57   16.44
  -3  -2  21  329.03   15.18
  -3   2  21  327.62   15.29
  -3   2  20   15.84    2.36
  -3  -2  20   14.74    2.32
  -3  -2  20   11.96    1.57
  -3   2  20   13.30    1.68
  -3  -2  19   30.80    2.61
  -3   2  19   25.60    2.50
  -3  -2  19   34.23    4.94
  -3   2  19   29.60    4.74
  -3   2  19   31.30    3.33
  -3  -2  19   26.75    3.21
  -3  -2  18   91.68    8.87
  -3   2  18   90.20    8.92
  -3   2  18  105.90    6.85
  -3   2  17  254.20   17.57
  -3   2  17  315.09   14.17
  -3  -2  17  311.42   18.79
  -3   2  17  322.71   19.29
  -3  -2  17  286.30   19.44
  -3   2  17  320.77   15.63
  -3   2  16   77.89    7.54
  -3  -2  16   72.18    8.06
  -3   2  16   74.45    4.59
  -3   2  16   74.91    7.69
  -3  -2  16   85.73    7.98
  -3   2  16   73.28    5.44
  -3  -2  15  149.97   10.96
  -3   2  15  135.54   11.87
  -3   2  15  166.77   11.64
  -3  -2  15  133.35    9.40
  -3   2  15  131.57   10.55
  -3  -2  15  140.41   11.54
  -3  -2  15  141.37    8.38
  -3   2  14  151.16   11.05
  -3   2  14  167.77   12.58
  -3  -2  14  141.06    9.68
  -3  -2  14  163.05   11.95
  -3  -2  14  138.31   11.76
  -3  -2  14  139.06    8.30
  -3  -2  14  151.02   10.85
  -3   2  14  160.27   11.37
  -3   2  13  137.35   11.44
  -3  -2  13  133.44    9.79
  -3   2  13  146.34   10.35
  -3  -2  13  121.50    7.28
  -3  -2  13  125.91   10.29
  -3   2  13  116.69    9.54
  -3   2  13  141.79   10.90
  -3   2  12   30.04    4.04
  -3  -2  12   21.44    2.30
  -3   2  12   25.16    4.37
  -3   2  12   25.15    3.99
  -3  -2  12   26.61    4.09
  -3   2  11  635.07   32.25
  -3   2  11  634.32   31.24
  -3   2  10   58.90    6.20
  -3   2  10   58.00    5.68
  -3   2   9  896.82   43.30
  -3   2   9  987.03   42.80
  -3   2   8  387.67   19.58
  -3   2   8  364.38   17.05
  -3  -2   8  349.38   17.80
  -3   2   7   96.75    5.77
  -3  -2   7   95.20    6.17
  -3  -2   6  277.91   13.63
  -3   2   6  291.49   13.46
  -3   2   5    3.52    0.85
  -3  -2   5    3.70    0.82
   3  -2  -5    3.66    1.47
   3   2  -5    2.08    1.17
  -3  -2   4   86.98    4.70
   3   2  -4   86.50    6.40
   3  -2  -4   81.21    6.12
   3  -2  -3   33.03    3.48
   3   2  -3   32.89    3.52
   3  -2  -2   28.18    2.97
   3   2  -2   21.10    2.74
   3  -2  -1   23.49    2.69
   3   2  -1   19.88    2.65
   3  -2   0 1073.01   44.28
   3   2   0  964.89   44.24
   3   2   1  104.49    7.36
   3  -2   1  126.17    7.56
   3  -2   2  323.23   17.12
   3   2   2  312.39   16.83
   3  -2   2  338.50   16.44
   3   2   2  305.11   16.35
   3   2   3  706.45   30.36
   3  -2   3  690.99   30.14
   3  -2   3  737.73   33.17
   3   2   3  653.90   32.46
   3   2   4  610.63   27.33
   3  -2   4  609.89   27.17
   3  -2   4  639.19   30.34
   3   2   4  625.44   30.10
   3  -2   5  723.44   31.86
   3   2   5  716.17   32.05
   3  -2   5  756.65   35.54
   3   2   5  717.66   35.07
   3   2   6   45.82    5.69
   3  -2   6   42.74    5.53
   3  -2   7   47.09    6.23
   3   2   7   51.94    6.50
   3  -2   8  298.94   18.81
   3   2   8  241.24   17.48
   3  -2   9  111.17    6.41
   3   2   9  109.50    6.39
   3  -2   9  117.86    6.75
   3   2   9  100.07    6.50
   3   2   9  104.42    5.48
   3   2   9  108.01   10.95
   3  -2  10   75.69    5.23
   3   2  10   68.22    5.08
   3  -2  10   88.85   10.00
   3   2  10   75.34    9.35
   3   2  10   75.53    4.12
   3  -2  10   70.79    4.50
   3  -2  10   68.63    4.85
   3   2  10   64.57    4.79
   3  -2  11  208.36   11.00
   3   2  11  188.57   10.83
   3  -2  11  223.03   17.69
   3   2  11  234.76   18.22
   3  -2  11  191.34    9.69
   3   2  11  191.74    9.39
   3  -2  11  203.57   10.63
   3  -2  11  208.97   10.12
   3   2  11  196.34   10.62
   3  -2  12   39.65    3.88
   3  -2  12   42.32    7.57
   3   2  12   35.02    6.99
   3   2  12   38.80    3.90
   3  -2  12   37.92    3.03
   3  -2  12   44.68    3.45
   3  -2  12   39.69    3.65
   3   2  12   45.99    3.93
   3  -2  13    0.93    1.52
   3   2  13    0.97    2.25
   3  -2  13    0.68    1.02
   3   2  13    1.43    1.17
   3  -2  13    1.78    0.97
   3   2  13    1.03    0.86
   3  -2  13    0.45    0.63
   3   2  13    0.49    0.60
   3  -2  14   16.97    2.67
   3   2  14   18.17    2.70
   3  -2  14   15.71    4.85
   3   2  14   20.72    5.64
   3   2  14   14.20    1.80
   3  -2  14   14.07    1.92
   3   2  14   14.14    2.06
   3  -2  14   15.06    2.30
   3   2  14   12.88    2.26
   3  -2  15  504.75   23.62
   3   2  15  480.59   23.64
   3   2  15  454.96   32.87
   3  -2  15  488.63   32.89
   3   2  15  452.57   21.58
   3   2  15  511.86   22.62
   3  -2  15  502.68   23.06
   3   2  15  477.06   23.07
   3  -2  15  505.60   22.15
   3   2  16   13.87    2.65
   3  -2  16   23.38    6.14
   3   2  16   10.84    4.39
   3  -2  16   18.65    2.79
   3   2  16   18.04    2.32
   3  -2  16   16.95    2.12
   3   2  16   15.12    2.49
   3  -2  16   21.67    2.72
   3   2  17    1.52    1.34
   3  -2  17    2.13    1.37
   3   2  17    0.85    1.18
   3   2  17    2.71    1.02
   3   2  18   17.64    2.70
   3  -2  18   18.64    2.66
   3   2  18   20.78    2.32
   3  -2  19    1.75    1.19
   3   2  19    1.88    1.10
   3   2  19    1.36    0.70
   3  -2  20  256.14   12.48
   3   2  20  250.71   12.61
   3   2  20  239.90   11.30
   3  -2  21    0.83    0.67
   3   2  21    1.92    0.79
  -3   3  24   23.21    2.08
  -3  -3  24   21.98    1.94
  -3  -3  24   25.54    1.91
  -3   3  24   23.32    1.97
  -3  -3  23    2.11    0.84
  -3   3  23    1.28    0.79
  -3  -3  23    2.18    0.80
  -3   3  23    2.00    0.78
  -3   3  23    2.52    0.57
  -3  -3  23    2.16    0.52
  -3   3  23    2.02    0.74
  -3  -3  22    0.79    0.86
  -3   3  22    0.18    0.75
  -3  -3  22    0.14    0.63
  -3   3  22    0.64    0.85
  -3  -3  22    0.65    0.41
  -3   3  22    0.82    0.48
  -3   3  22    0.15    0.68
  -3   3  21   40.52    3.62
  -3  -3  21   42.47    3.80
  -3   3  21   34.82    3.68
  -3  -3  21   37.57    3.43
  -3  -3  21   41.01    2.87
  -3   3  21   42.06    3.00
  -3  -3  20    3.05    0.82
  -3   3  20    2.05    0.78
  -3  -3  20    1.85    1.09
  -3   3  20    2.88    1.16
  -3   3  19   60.43    4.80
  -3   3  19   55.03    3.73
  -3  -3  19   57.13    3.86
  -3   3  19   58.07    4.00
  -3  -3  18  331.86   19.54
  -3   3  18  315.60   19.70
  -3   3  18  310.54   16.04
  -3   3  18  326.55   14.86
  -3   3  17   31.17    3.30
  -3  -3  17   34.57    4.97
  -3   3  17   22.05    4.19
  -3  -3  17   30.05    5.04
  -3   3  17   32.15    2.69
  -3   3  17   29.74    4.66
  -3   3  16  155.57    9.05
  -3  -3  16  140.60   12.04
  -3   3  16  139.20   11.47
  -3  -3  16  166.20   11.87
  -3   3  16  162.67   12.14
  -3   3  16  164.26    8.24
  -3  -3  15 1320.15   59.40
  -3   3  15 1230.75   58.21
  -3  -3  15 1315.67   57.81
  -3   3  15 1397.35   58.88
  -3   3  15 1300.95   54.16
  -3  -3  15 1231.78   54.25
  -3  -3  14  171.54    9.61
  -3  -3  14  162.05   13.62
  -3   3  14  195.89   14.93
  -3   3  14  191.07   12.72
  -3   3  14  177.73   13.36
  -3  -3  14  193.56   12.37
  -3  -3  14  181.29   12.91
  -3   3  14  165.47   12.27
  -3  -3  14  160.31   10.47
  -3  -3  13  399.07   18.92
  -3   3  13  417.46   24.57
  -3   3  13  398.41   22.29
  -3  -3  13  419.10   22.78
  -3  -3  13  374.57   24.13
  -3  -3  13  399.40   21.66
  -3   3  13  449.71   22.70
  -3   3  13  424.90   23.48
  -3   3  12    4.98    1.82
  -3   3  12    1.05    1.21
  -3  -3  12    2.27    0.87
  -3   3  12    0.42    0.98
  -3  -3  12    2.02    1.17
  -3   3  12    3.33    1.42
  -3   3  11  131.99    9.68
  -3   3  11  118.52   10.17
  -3   3  10  167.13   10.94
  -3   3  10  163.67   11.93
  -3   3   9  429.51   21.00
  -3   3   9  389.70   21.95
  -3   3   8  257.50   13.41
  -3   3   8  236.40   14.36
  -3   3   8  229.86   12.31
  -3   3   7    4.54    1.10
  -3   3   7    6.37    1.44
  -3   3   6   77.32    5.08
   3  -3  -6   78.63    6.34
   3   3  -6   72.91    6.34
   3  -3  -5   44.90    4.36
   3   3  -5   42.58    4.43
   3   3  -4  116.39    7.94
   3  -3  -4  121.87    7.80
   3  -3  -3  961.15   41.41
   3   3  -3  926.23   41.68
   3   3  -2    3.80    1.25
   3  -3  -2    3.94    1.18
   3   3  -1  100.29    6.91
   3  -3  -1  108.83    6.82
   3   3   0    3.30    1.28
   3  -3   0    3.23    1.13
   3   3   1   16.70    2.46
   3  -3   1   14.59    2.17
   3  -3   2  258.04   12.43
   3   3   2  273.62   12.72
   3  -3   2  277.92   14.04
   3  -3   2  278.60   15.00
   3   3   2  234.06   14.19
   3   3   3   24.04    2.43
   3  -3   3   27.07    2.44
   3  -3   3   23.11    3.44
   3   3   3   25.56    3.53
   3  -3   4   37.04    3.08
   3   3   4   34.33    3.09
   3  -3   4   35.42    4.47
   3   3   4   32.48    4.21
   3   3   5  222.40   11.66
   3  -3   5  221.41   11.43
   3  -3   5  234.15   14.45
   3   3   5  216.25   13.99
   3   3   6   30.29    4.52
   3   3   6   28.04    2.04
   3  -3   7   87.31    8.41
   3   3   7   79.43    8.08
   3   3   7   70.53    4.06
   3  -3   8  829.13   40.21
   3   3   8  722.32   39.20
   3   3   9 1257.99   55.07
   3  -3   9 1342.75   55.20
   3  -3   9 1526.63   64.41
   3  -3   9 1397.73   55.62
   3   3   9 1271.19   55.41
   3   3   9 1437.62   63.85
   3   3   9 1276.56   54.08
   3  -3  10    2.85    1.84
   3   3  10    2.20    2.08
   3  -3  10    1.94    0.96
   3   3  10    2.18    1.01
   3  -3  10    3.84    0.90
   3  -3  10    1.70    0.82
   3   3  10    1.91    0.81
   3   3  10    2.35    0.66
   3  -3  11  746.10   31.66
   3  -3  11  762.84   32.43
   3   3  11  698.80   32.28
   3   3  11  706.51   31.08
   3  -3  11  752.31   32.76
   3   3  11  728.64   32.77
   3   3  11  776.86   41.92
   3  -3  11  856.58   42.46
   3   3  12  111.86    6.48
   3  -3  12  117.13    7.49
   3   3  12  113.55    7.51
   3   3  12  119.00   13.03
   3  -3  12  135.59   13.54
   3  -3  12  121.35    6.69
   3   3  12  115.69    7.28
   3  -3  12  120.06    7.24
   3   3  12  107.68    6.15
   3   3  13  282.25   15.71
   3  -3  13  319.50   15.89
   3  -3  13  361.53   24.73
   3   3  13  321.09   24.31
   3  -3  13  283.69   14.26
   3  -3  13  321.88   15.47
   3   3  13  292.58   15.41
   3  -3  13  331.25   14.79
   3   3  13  308.60   14.58
   3  -3  14  157.75    9.53
   3   3  14  157.14    9.71
   3  -3  14  176.32   16.63
   3   3  14  154.07   16.22
   3  -3  14  141.75    7.97
   3   3  14  150.72    8.28
   3   3  14  157.31    8.82
   3  -3  14  162.13    9.17
   3   3  14  150.04    9.15
   3   3  15  382.25   18.02
   3  -3  15  411.95   19.71
   3   3  15  382.10   19.71
   3  -3  15  430.42   29.09
   3   3  15  360.16   28.23
   3   3  15  397.50   18.74
   3  -3  15  413.76   19.23
   3   3  15  378.23   19.17
   3   3  16   34.85    3.06
   3   3  16   48.98    4.64
   3   3  16   34.55    7.56
   3  -3  16   52.14    8.66
   3  -3  16   46.99    4.39
   3   3  16   42.94    3.76
   3  -3  16   41.59    3.90
   3   3  16   41.37    4.04
   3  -3  17   51.76    4.59
   3   3  17   46.82    4.61
   3   3  17   47.08    3.98
   3  -3  18  204.45   10.94
   3   3  18  179.47   10.90
   3   3  18  191.31   10.07
   3   3  19   35.54    3.57
   3  -3  19   35.59    3.43
   3   3  19   35.61    2.94
   3  -3  20   18.07    2.16
   3   3  20   17.57    2.30
   3   3  20   19.65    1.83
   3  -3  21   16.33    1.78
   3   3  21   17.45    1.92
  -3  -4  24   27.70    1.97
  -3   4  24   23.02    2.00
  -3  -4  24   26.44    1.83
  -3   4  24   23.65    1.91
  -3   4  23  126.98    7.22
  -3  -4  23  144.94    7.14
  -3   4  23  136.64    7.14
  -3  -4  23  138.76    6.88
  -3   4  23  121.14    6.99
  -3   4  23  135.56    6.99
  -3  -4  22   48.48    2.98
  -3   4  22   48.89    3.12
  -3   4  22   50.21    4.03
  -3  -4  22   54.75    3.90
  -3   4  22   44.36    3.67
  -3  -4  22   47.98    3.55
  -3   4  22   45.11    3.58
  -3  -4  21    2.27    1.05
  -3   4  21    1.83    1.13
  -3   4  21    2.68    0.76
  -3  -4  21    0.80    0.55
  -3   4  21    1.33    0.84
  -3   4  21    0.91    0.82
  -3  -4  21    2.48    1.02
  -3  -4  20  157.94    7.69
  -3   4  20  148.17    7.80
  -3   4  20  155.29    8.75
  -3   4  20  142.72    7.56
  -3  -4  19    2.90    0.84
  -3   4  19    2.03    0.78
  -3   4  19    2.35    0.80
  -3   4  19    2.38    1.13
  -3  -4  18  120.02    6.59
  -3   4  18  129.77    6.88
  -3   4  18  121.55    7.68
  -3  -4  18  105.61    9.48
  -3   4  18  103.92    9.82
  -3   4  18  123.37    6.77
  -3   4  17  292.70   19.43
  -3   4  17  333.29   16.36
  -3   4  17  324.99   19.94
  -3  -4  17  317.57   19.24
  -3  -4  17  319.19   20.13
  -3   4  17  337.66   15.30
  -3   4  16   21.65    4.05
  -3   4  16   19.94    2.12
  -3  -4  16   11.72    3.09
  -3   4  16   16.45    3.47
  -3  -4  16   17.08    3.35
  -3  -4  16   20.19    2.70
  -3   4  16   17.49    2.38
  -3   4  15    0.49    0.80
  -3   4  15    1.83    1.29
  -3  -4  15    0.81    1.04
  -3  -4  15   -0.49    0.56
  -3  -4  15    0.65    1.51
  -3   4  15    0.56    0.80
  -3   4  14   35.63    5.95
  -3  -4  14   32.09    5.61
  -3   4  14   31.67    3.12
  -3  -4  14   32.82    4.77
  -3   4  14   33.76    4.96
  -3  -4  14   28.75    4.15
  -3   4  14   37.90    4.92
  -3  -4  14   33.27    3.28
  -3   4  13   82.33    9.14
  -3  -4  13   80.28    9.20
  -3   4  13   83.89    7.92
  -3  -4  13   84.28    7.77
  -3  -4  13   78.29    6.99
  -3   4  13   83.08    7.51
  -3   4  13   74.59    7.80
  -3  -4  13   74.73    5.27
  -3   4  12    1.22    1.05
  -3   4  12    0.84    1.19
  -3  -4  12    2.00    1.09
  -3   4  12    1.87    1.22
  -3   4  12   -0.56    0.91
  -3  -4  12    0.60    0.60
  -3  -4  11   10.57    1.55
  -3   4  11   14.12    2.85
  -3   4  11   18.10    3.70
  -3   4  10  157.30   10.38
  -3   4  10  147.39   11.49
  -3   4   9 1196.10   51.11
  -3   4   9 1101.00   50.13
  -3   4   9 1204.35   53.49
  -3   4   8 1732.04   71.69
  -3   4   8 1639.72   71.13
  -3   4   7  584.87   25.86
   3   4  -7  557.79   27.71
  -3   4   7  537.16   25.54
  -3   4   6   98.70    6.15
   3   4  -6   97.20    7.48
   3  -4  -6   95.53    7.17
  -3   4   6   89.37    6.14
   3  -4  -5    1.48    0.95
   3   4  -5    4.45    1.58
  -3   4   5    2.98    0.86
  -3   4   4  239.94   11.13
   3  -4  -4  217.49   12.35
   3   4  -4  226.13   12.88
   3  -4  -3   90.44    6.17
   3   4  -3   89.91    6.46
   3  -4  -2  403.95   18.06
   3   4  -2  337.78   18.04
   3   4  -1   59.62    5.03
   3  -4  -1   70.29    5.02
   3   4   0    1.78    1.03
   3  -4   0    2.43    0.99
   3   4   1   83.36    6.36
   3  -4   1  105.17    6.55
   3   4   2 1053.25   48.93
   3  -4   2 1098.21   46.61
   3   4   2 1098.85   46.92
   3  -4   3  152.44   10.17
   3   4   3  143.34    9.86
   3   4   3  150.83    8.19
   3  -4   3  153.88    7.99
   3  -4   4  110.97    8.42
   3   4   4   94.37    7.89
   3  -4   4  102.56    6.08
   3   4   4  101.34    6.25
   3   4   5   15.53    1.43
   3  -4   5   20.33    3.44
   3   4   5   13.82    2.87
   3   4   6  201.73    9.55
   3  -4   6  219.76   14.26
   3   4   6  224.14   14.29
   3   4   7  130.19    6.61
   3  -4   7  138.59   11.26
   3   4   7  127.95   10.80
   3   4   8  225.75   11.09
   3   4   8  242.91   11.10
   3   4   8  218.10   16.17
   3   4   9  103.62    5.53
   3   4   9  101.40    6.17
   3  -4   9  109.24    6.29
   3   4   9  101.68    5.92
   3   4   9  107.13    5.88
   3   4   9  105.40   10.60
   3  -4   9  114.41    6.64
   3   4   9  105.41    6.49
   3  -4   9  119.38   11.21
   3   4  10   27.61    2.24
   3  -4  10   30.99    2.83
   3   4  10   26.06    2.69
   3   4  10   30.09    2.53
   3   4  10   23.83    2.75
   3  -4  10   24.48    2.76
   3  -4  10   22.57    4.87
   3   4  10   31.55    5.85
   3   4  11   13.90    1.59
   3  -4  11   18.93    2.28
   3   4  11   17.89    2.25
   3   4  11   14.49    1.80
   3  -4  11   16.82    2.30
   3   4  11   13.94    2.19
   3  -4  11   18.60    4.61
   3   4  11   15.55    4.48
   3   4  12   27.07    2.38
   3   4  12   26.38    2.58
   3   4  12   29.47    3.28
   3  -4  12   21.04    5.16
   3   4  12   26.18    5.90
   3  -4  12   24.57    3.00
   3   4  12   24.14    2.87
   3  -4  12   30.15    3.04
   3   4  13    8.48    1.56
   3  -4  13    9.81    1.81
   3   4  13    9.21    1.82
   3  -4  13   15.59    2.39
   3  -4  13   12.61    4.05
   3   4  13   14.67    4.68
   3   4  13   13.84    2.31
   3   4  14  116.60    6.97
   3  -4  14  128.75    7.68
   3   4  14  114.94    7.64
   3  -4  14  132.46    8.18
   3   4  14  122.43    8.18
   3   4  14  122.32   14.17
   3  -4  14  109.95    6.66
   3   4  15   17.34    2.14
   3   4  15   22.41    2.59
   3  -4  15   17.51    2.45
   3   4  15   19.25    2.69
   3  -4  15   22.25    2.93
   3  -4  15   26.77    5.99
   3   4  15   22.39    5.95
   3   4  15   15.77    2.73
   3  -4  15   19.01    2.05
   3   4  16    0.18    0.85
   3  -4  16    1.37    1.02
   3   4  16    0.26    1.36
   3   4  16    1.26    0.65
   3   4  17  313.62   16.74
   3  -4  17  341.63   16.61
   3   4  17  323.72   15.82
   3  -4  18  343.14   16.65
   3   4  18  339.07   16.99
   3   4  18  328.78   15.97
   3   4  19   13.27    2.16
   3  -4  19   13.38    1.99
   3   4  19   14.88    1.84
   3  -4  20    8.74    1.44
   3   4  20    8.47    1.55
   3   4  20    8.33    1.20
   3   4  21   20.13    1.97
   3   5 -24   35.70    2.06
  -3   5  23    0.46    0.44
  -3  -5  23    1.33    0.62
  -3   5  23    0.67    0.57
  -3  -5  23    1.00    0.49
  -3   5  23    1.09    0.60
  -3   5  22  134.44    7.60
  -3  -5  22  150.72    7.43
  -3   5  22  128.37    7.30
  -3  -5  22  154.61    7.25
  -3  -5  22  133.86    6.40
  -3   5  22  124.23    6.51
  -3   5  22  121.43    7.15
  -3   5  21   24.67    2.87
  -3  -5  21   29.44    2.81
  -3   5  21   26.83    2.80
  -3  -5  21   28.20    2.66
  -3  -5  21   27.90    2.12
  -3   5  21   26.45    2.21
  -3   5  21   31.21    2.89
  -3  -5  20   51.70    4.15
  -3   5  20   41.84    4.07
  -3  -5  20   47.20    3.14
  -3   5  20   49.78    3.37
  -3   5  20   44.89    3.24
  -3   5  20   43.25    3.83
  -3   5  19   44.72    3.44
  -3  -5  19   47.50    3.32
  -3   5  19   52.84    4.28
  -3   5  19   52.76    3.63
   3  -5 -18    9.89    3.42
   3   5 -18   11.66    3.38
  -3  -5  18    9.91    1.36
  -3   5  18    8.17    1.33
  -3   5  18    5.45    1.47
  -3   5  18    6.76    1.29
  -3   5  18   11.16    2.71
  -3  -5  18   13.40    2.80
  -3  -5  17   80.04    5.89
  -3   5  17   66.31    5.33
  -3   5  17   76.65    4.93
  -3  -5  17   80.18    7.55
  -3   5  17   68.15    7.52
  -3  -5  17   71.84    7.78
  -3   5  16    0.53    0.87
  -3   5  16    3.38    1.15
  -3  -5  16    0.43    1.00
  -3  -5  16    0.42    1.07
  -3  -5  16    0.98    1.13
  -3   5  16    1.92    1.24
  -3   5  16    1.71    0.76
  -3  -5  15   33.25    3.38
  -3  -5  15   31.20    4.41
  -3   5  15   29.14    4.49
  -3  -5  15   24.48    4.27
  -3   5  15   34.25    3.30
  -3  -5  15   19.22    4.65
  -3   5  15   26.52    4.61
  -3   5  14    2.78    1.97
  -3   5  14    0.99    0.99
  -3   5  14    0.85    0.98
  -3  -5  14    0.45    0.89
  -3  -5  14    1.11    0.95
  -3   5  14    1.27    0.86
  -3  -5  14    2.18    2.06
  -3  -5  14    1.34    0.86
  -3   5  13  410.71   24.42
  -3  -5  13  383.85   17.99
  -3   5  13  361.86   21.54
  -3  -5  13  417.58   21.74
  -3  -5  13  381.34   20.31
  -3   5  13  383.10   20.93
  -3   5  13  357.36   17.72
  -3  -5  13  344.06   24.05
  -3   5  12   51.68    6.72
  -3  -5  12   42.91    4.72
  -3   5  12   38.95    4.77
  -3  -5  12   32.26    5.93
  -3  -5  12   35.55    3.28
  -3   5  11    5.11    1.80
  -3  -5  11    4.81    1.53
  -3   5  11   10.00    2.33
  -3  -5  11    5.29    1.19
  -3   5  11    3.80    2.09
  -3   5  10   25.05    3.79
  -3   5  10   28.45    3.72
  -3   5  10   25.88    4.34
  -3   5  10   23.10    3.27
  -3   5   9  251.47   16.23
  -3   5   9  242.67   13.92
  -3   5   9  263.75   14.28
  -3   5   8  945.66   43.76
  -3   5   8 1027.11   43.81
   3   5  -8 1007.78   46.09
  -3   5   7  305.75   16.29
   3   5  -7  309.67   17.75
   3  -5  -7  353.30   17.84
  -3   5   7  322.44   15.99
  -3   5   6   20.72    2.74
  -3   5   6   26.04    2.66
   3   5  -6   26.26    3.61
   3  -5  -6   20.29    3.05
  -3   5   5  790.67   35.05
   3   5  -5  819.99   37.43
   3  -5  -5  872.17   37.12
   3  -5  -4  234.69   11.60
   3   5  -4  214.28   11.84
  -3   5   4  209.12    9.58
   3  -5  -3   39.04    3.59
   3   5  -3   34.64    3.72
   3   5  -3   32.55    2.18
  -3   5   3   38.91    2.52
   3   5  -2  281.22   15.12
   3   5  -2  295.64   13.14
  -3   5   2  287.06   12.70
   3  -5  -1  493.11   20.91
   3   5  -1  452.36   19.36
   3  -5   0   11.58    1.87
   3   5   0   12.90    2.09
   3   5   1  451.01   20.45
   3  -5   1  446.93   20.16
   3  -5   1  511.96   21.88
   3  -5   2  261.71   11.96
   3  -5   2  276.27   12.56
   3   5   2  266.94   12.75
   3   5   3  632.01   31.99
   3   5   3  717.17   30.00
   3  -5   3  688.02   29.67
   3   5   3  665.63   28.71
   3   5   4    8.08    2.09
   3  -5   4   10.39    2.36
   3   5   4    7.11    1.37
   3  -5   4   10.32    1.50
   3   5   4    9.84    1.12
   3   5   5   58.33    3.53
   3  -5   5   69.60    6.64
   3   5   5   59.85    6.18
   3   5   6    1.94    0.62
   3  -5   6    1.75    1.34
   3   5   6    2.18    1.51
   3   5   7  414.88   18.28
   3  -5   7  455.36   24.36
   3   5   7  380.51   23.30
   3   5   8    3.57    0.84
   3  -5   8    2.81    1.84
   3   5   8    4.57    2.09
   3   5   9    5.13    1.12
   3  -5   9   10.23    1.51
   3   5   9    6.69    1.14
   3  -5   9    5.04    2.53
   3   5   9    5.97    1.29
   3   5   9    5.19    2.26
   3  -5   9    6.73    1.41
   3   5  10    2.49    0.81
   3  -5  10    2.38    0.93
   3   5  10    0.93    0.70
   3   5  10    2.02    0.80
   3  -5  10    1.40    1.62
   3   5  10    2.92    2.07
   3  -5  10    2.42    0.96
   3   5  10    4.34    1.20
   3  -5  11    6.02    1.42
   3  -5  11    4.59    2.66
   3   5  11    5.71    2.99
   3   5  11    5.42    1.43
   3   5  11    4.72    1.09
   3  -5  11    4.68    1.15
   3   5  11    6.02    1.35
   3  -5  12    2.48    2.14
   3   5  12    0.90    2.74
   3  -5  12    4.45    1.33
   3   5  12    5.27    1.48
   3   5  12    2.90    0.93
   3  -5  12    3.82    1.21
   3   5  12    3.00    1.05
   3  -5  13  405.59   18.94
   3   5  13  376.91   19.01
   3  -5  13  408.91   27.32
   3   5  13  391.01   27.55
   3  -5  13  383.49   18.34
   3   5  13  377.23   18.49
   3   5  13  371.90   17.89
   3  -5  14   20.08    2.71
   3   5  14   20.27    2.87
   3  -5  14   20.85    5.28
   3   5  14   12.18    4.29
   3  -5  14   17.40    2.09
   3  -5  14   18.14    2.43
   3   5  14   16.52    2.44
   3   5  14   18.85    2.23
   3  -5  15   16.20    2.46
   3  -5  15   14.61    4.26
   3   5  15   11.40    4.19
   3   5  15   15.63    2.55
   3  -5  15   13.58    1.80
   3   5  15   15.17    2.21
   3   5  15   13.34    1.91
   3  -5  16  201.07   10.60
   3   5  16  173.18   10.59
   3  -5  16  162.98    8.89
   3   5  16  182.42    9.42
   3   5  16  187.45   10.01
   3  -5  17    1.21    1.02
   3   5  17    2.12    1.21
   3   5  17    1.25    0.61
   3   5  17    1.21    0.92
   3   5  18   64.14    4.61
   3   5  18   62.96    5.14
   3  -5  18   68.10    4.97
   3   5  19  130.57    7.09
   3  -5  19  129.29    7.32
   3   5  19  123.63    7.56
   3   5  20  172.26    8.48
   3   5  20  161.98    8.87
   3  -5  20  188.43    8.82
  -3   6  23    0.21    0.14
  -3   6  23   27.43    1.76
   3   6 -23   41.26    1.84
  -3   6  23    0.33    0.19
  -3  -6  22   18.29    1.70
  -3   6  22   18.11    1.87
  -3  -6  22   17.08    1.75
  -3   6  22   14.09    1.79
  -3   6  22   18.27    1.92
  -3  -6  21   49.08    3.36
  -3   6  21   40.25    3.42
  -3  -6  21   46.57    3.45
  -3   6  21   38.68    3.53
  -3  -6  21   45.20    2.73
  -3   6  21   39.55    2.80
  -3   6  21   44.27    3.50
  -3   6  20    5.41    1.33
  -3  -6  20    5.34    1.32
  -3   6  20    4.98    1.41
  -3   6  20    5.34    1.35
  -3  -6  20    7.31    1.37
  -3   6  20    3.68    0.85
  -3  -6  20    5.58    0.91
  -3   6  20    5.47    1.06
  -3  -6  19  145.56    7.17
  -3   6  19  136.44    7.31
  -3   6  19  136.81    8.28
  -3   6  19  143.79    7.63
  -3  -6  18  123.11    6.45
  -3   6  18  115.49    6.60
  -3   6  18  124.19    7.66
  -3   6  18  127.68    7.03
  -3   6  17   12.56    2.09
   3  -6 -17   10.00    3.64
   3   6 -17   16.66    4.12
  -3  -6  17   14.85    1.63
  -3   6  17   15.29    1.77
  -3   6  17   14.49    3.20
  -3  -6  17   16.78    3.24
  -3  -6  17   12.99    2.89
  -3   6  17   12.29    1.80
  -3   6  16  378.94   17.96
  -3  -6  16  332.12   23.31
  -3  -6  16  386.58   20.78
  -3   6  16  360.17   21.23
  -3  -6  16  367.98   21.48
  -3   6  16  360.38   22.27
   3   6 -16  346.52   23.61
  -3   6  15   60.79    8.66
  -3  -6  15   63.30    5.08
  -3  -6  15   73.53    9.28
  -3   6  15   65.09    4.94
  -3  -6  15   59.67    6.29
  -3   6  15   62.44    6.83
  -3  -6  15   68.06    7.07
  -3   6  15   51.41    6.80
  -3   6  14   30.06    5.94
  -3  -6  14   46.57    4.06
  -3  -6  14   49.33    7.60
  -3   6  14   41.75    3.78
  -3  -6  14   42.10    4.94
  -3   6  14   52.73    5.86
  -3  -6  14   42.11    5.38
  -3   6  14   43.32    5.88
  -3   6  13  221.97   16.98
  -3  -6  13  221.44   11.46
  -3   6  13  202.88   11.23
  -3  -6  13  221.05   17.75
  -3  -6  13  221.86   13.36
  -3   6  13  212.60   13.77
  -3  -6  13  222.49   14.24
  -3   6  12  260.53   18.53
  -3  -6  12  262.47   13.17
  -3  -6  12  251.66   14.87
  -3   6  12  276.23   15.76
  -3  -6  12  264.13   19.77
  -3   6  11  494.57   24.23
  -3  -6  11  408.90   21.75
  -3   6  11  467.95   22.84
  -3  -6  11  413.85   19.89
  -3   6  11  448.75   25.86
  -3   6  10  148.98   10.27
   3   6 -10  132.03   10.79
  -3   6  10  141.80    9.41
  -3  -6  10  131.63    8.76
  -3  -6  10  119.87    7.18
  -3   6  10  141.18   11.63
  -3   6  10  133.08    9.42
  -3   6   9  191.12   13.95
  -3   6   9  174.01   11.58
   3   6  -9  197.20   13.36
   3  -6  -9  213.69   13.27
  -3   6   9  196.52   12.39
  -3   6   8  121.23    8.76
   3   6  -8  134.78   10.03
  -3   6   8  135.51    9.21
   3  -6  -8  133.69    9.58
  -3   6   7   14.33    2.46
   3  -6  -7   15.67    2.79
   3   6  -7   14.91    2.90
  -3   6   6  322.40   17.02
   3  -6  -6  329.59   17.11
   3   6  -6  318.26   17.58
   3   6  -5 1809.49   83.50
   3  -6  -5 2116.61   83.35
   3   6  -4   71.11    4.21
   3   6  -4   79.11    6.10
   3   6  -3    5.01    0.86
   3   6  -3    3.48    1.21
   3  -6  -3    4.97    1.26
   3   6  -2  223.76   10.70
   3  -6  -2  228.52   10.24
   3  -6  -2  250.70   11.96
   3  -6  -1  850.88   32.83
   3   6  -1  813.68   31.86
   3   6   0    1.00    0.73
   3  -6   0    1.39    0.85
   3   6   0    0.14    0.52
  -3   6  -1   14.09    1.33
   3  -6   1   16.70    1.56
   3   6   1   16.35    1.73
   3  -6   1   14.50    1.53
   3  -6   2  319.75   14.00
   3   6   2  305.27   14.15
   3   6   2  293.27   13.40
   3   6   3   29.47    2.66
   3  -6   3   29.87    2.55
   3   6   3   29.57    2.17
   3   6   4    5.65    1.70
   3  -6   4    9.91    2.25
   3   6   4    8.51    1.10
   3   6   5  400.55   22.26
   3   6   5  414.09   18.44
   3  -6   6   12.44    2.84
   3   6   6    9.04    2.58
   3   6   6   11.86    1.42
   3   6   7  228.04   15.90
   3  -6   7  270.07   16.72
   3   6   7  254.08   11.24
   3   6   7  232.98   11.50
   3   6   7  246.52   11.60
   3  -6   8   41.08    5.83
   3   6   8   33.18    5.34
   3   6   8   37.12    2.61
   3   6   8   31.19    2.71
   3   6   8   36.58    2.86
   3  -6   9    4.91    2.25
   3   6   9    5.11    2.22
   3  -6   9    5.37    1.19
   3   6   9    3.83    1.06
   3   6   9    3.76    0.94
   3   6   9    4.85    1.05
   3  -6   9    4.03    0.98
   3   6   9    6.55    1.04
   3   6  10  726.65   31.06
   3  -6  10  713.14   31.08
   3   6  10  658.75   31.00
   3   6  10  729.93   30.57
   3  -6  10  806.68   31.84
   3   6  10  645.84   31.36
   3  -6  10  832.30   40.17
   3   6  10  676.67   38.69
   3   6  11   17.27    2.02
   3  -6  11   11.21    1.73
   3   6  11   14.17    1.98
   3   6  11   10.10    1.45
   3  -6  11   13.03    2.00
   3  -6  11   14.12    4.05
   3   6  11    6.90    1.61
   3   6  11   10.38    3.71
   3  -6  12   62.00    4.50
   3   6  12   52.45    4.37
   3   6  12   54.60    4.26
   3  -6  12   64.59    4.85
   3   6  12   55.70    4.75
   3  -6  12   67.85    9.05
   3   6  12   61.93    9.03
   3   6  13  213.45   11.56
   3   6  13  219.58   11.33
   3  -6  13  241.69   12.12
   3   6  13  189.68   11.73
   3  -6  13  262.66   19.73
   3   6  13  220.38   19.04
   3   6  14   45.88    3.83
   3  -6  14   52.25    4.40
   3   6  14   39.37    4.16
   3   6  14   45.75    8.08
   3  -6  14   54.19    8.34
   3  -6  15   19.63    2.27
   3   6  15   25.30    3.18
   3  -6  15   31.72    6.10
   3   6  15   26.61    5.99
   3  -6  15   29.10    3.17
   3   6  15   24.40    2.64
   3   6  16   32.45    3.19
   3  -6  16   25.04    2.43
   3   6  16   26.17    3.24
   3  -6  16   31.70    3.29
   3   6  16   32.07    2.87
   3   6  17   33.76    2.94
   3   6  17   29.51    2.32
   3   6  17   22.64    2.76
   3  -6  17   30.56    2.86
   3   6  18  191.63   10.12
   3   6  18  190.14   10.56
   3  -6  18  205.48   10.36
   3   6  19  130.90    6.72
   3   6  19  111.05    6.70
   3  -6  19  135.17    6.71
  -3   6 -19  105.94    5.58
   3   6  20   29.71    2.33
   3   7 -23  184.39    8.20
   3   7 -22   11.41    1.24
  -3   7  22   11.87    1.45
  -3   7  21   13.09    1.76
  -3  -7  21   11.47    1.48
  -3   7  21    9.30    1.49
  -3   7  21   10.55    1.56
  -3   7  21    9.17    1.40
  -3  -7  21   11.43    1.33
  -3  -7  20  285.61   12.25
  -3   7  20  269.43   12.40
  -3  -7  20  307.34   13.42
  -3   7  20  219.66   13.19
  -3   7  20  276.08   13.56
  -3  -7  20  314.47   13.18
  -3   7  20  229.88   13.08
  -3   7  20  299.53   13.01
  -3  -7  19  259.27   11.41
  -3   7  19  254.31   11.62
  -3  -7  19  285.65   12.81
  -3   7  19  200.69   12.46
  -3  -7  19  262.83   12.37
  -3   7  19  203.98   12.28
  -3   7  19  269.04   12.23
  -3   7  19  259.37   12.86
  -3   7  18   22.56    2.40
  -3  -7  18   25.26    2.07
  -3   7  18   21.09    2.05
  -3   7  18   21.09    2.65
  -3   7  17   13.08    2.14
  -3   7  17   12.78    1.82
  -3  -7  17   12.46    2.66
   3   7 -17   13.99    3.49
  -3  -7  17   14.96    1.57
  -3   7  17   13.14    1.58
  -3   7  16    0.23    0.44
   3  -7 -16   -0.65    1.51
   3   7 -16    1.29    1.05
  -3  -7  16    1.07    0.61
  -3  -7  16    1.50    1.22
  -3   7  16    0.41    0.78
  -3  -7  16    1.31    0.88
  -3  -7  16    0.74    0.60
   3  -7 -15    1.28    1.28
   3   7 -15    3.19    2.21
  -3   7  15    3.41    1.86
  -3   7  15    2.94    1.29
  -3  -7  15    2.60    1.42
  -3  -7  15    2.17    1.39
  -3   7  15    2.63    1.02
  -3  -7  15    1.62    1.32
  -3   7  15    2.40    1.85
   3  -7 -14   20.18    4.50
   3   7 -14   19.77    4.43
  -3  -7  14   24.49    3.67
  -3   7  14   27.55    4.14
  -3  -7  14   22.73    3.87
  -3   7  14   20.49    2.61
  -3  -7  14   24.24    5.45
  -3   7  14   21.59    5.04
   3  -7 -13   44.70    6.43
  -3   7  13   51.26    6.42
  -3  -7  13   51.52    5.78
   3   7 -13   50.50    6.79
  -3  -7  13   49.21    5.14
  -3   7  13   46.24    5.28
  -3   7  13   47.67    4.11
  -3  -7  13   49.37    7.85
  -3   7  13   44.54    7.12
  -3   7  12   81.57    8.16
   3  -7 -12   91.83    9.06
   3   7 -12   90.76    9.12
  -3  -7  12   86.85    7.02
  -3   7  12   94.61    7.57
  -3   7  12   89.05    5.98
  -3  -7  12   99.13   11.32
  -3   7  12   77.89    9.31
   3   7 -11  598.93   31.74
  -3   7  11  670.14   31.52
   3  -7 -11  680.75   32.19
  -3  -7  11  552.18   28.25
  -3   7  11  611.68   29.19
  -3  -7  11  546.04   34.42
  -3   7  11  599.91   30.14
  -3   7  10  296.02   16.67
   3  -7 -10  287.68   17.01
   3   7 -10  261.66   16.89
  -3  -7  10  245.60   14.32
  -3   7  10  288.59   15.23
  -3  -7  10  264.29   19.88
  -3   7  10  260.04   15.88
   3   7  -9    4.27    1.78
  -3   7   9    2.83    1.36
   3  -7  -9    2.30    1.40
  -3  -7   9    1.87    0.94
  -3   7   9    2.36    1.05
  -3   7   9    1.77    1.09
  -3   7   8   15.87    2.88
  -3   7   8   17.49    2.94
   3  -7  -8   16.06    2.94
   3   7  -8   13.94    2.90
  -3   7   7  142.41   10.37
   3  -7  -7  170.21   10.74
   3   7  -7  156.97   10.94
  -3   7   6 1136.27   50.79
   3  -7  -6 1201.78   50.18
   3   7  -6 1029.64   50.29
  -3   7   6 1168.70   49.83
   3  -7  -5  870.11   37.60
  -3   7   5  929.01   37.80
   3   7  -4  145.83    8.15
   3  -7  -4  175.10    7.99
   3   7  -4  138.07    9.37
   3  -7  -4  173.63    9.53
  -3   7   4  188.87    9.65
   3   7  -3   74.07    4.76
   3  -7  -3   77.84    4.38
   3   7  -3   65.97    5.40
   3  -7  -3   86.71    5.61
  -3   7   3   91.45    5.60
   3   7  -2    8.59    1.40
   3  -7  -2   10.39    1.23
   3  -7  -2    9.46    1.53
   3   7  -2    7.38    1.50
  -3   7   2    7.79    1.35
   3   7  -1    3.24    0.88
   3   7  -1    2.57    0.89
   3  -7  -1    2.30    0.69
   3  -7  -1    2.46    0.82
   3   7   0    9.09    1.54
   3   7   0    5.33    0.90
   3  -7   0    7.04    0.96
   3  -7   0    6.43    1.02
  -3   7   0    7.89    1.10
   3   7   1   41.04    2.95
   3  -7   1   43.59    2.89
   3   7   1   44.11    3.81
   3   7   2   52.13    3.54
   3   7   3  217.75   10.17
   3   7   4  125.33    6.48
   3   7   5  881.91   42.59
   3   7   5  905.86   38.70
   3  -7   6  313.59   17.54
   3   7   6  291.09   12.70
   3   7   6  273.99   13.05
   3  -7   7  109.33    9.39
   3   7   7   90.32    8.87
   3   7   7  108.96    5.58
   3   7   7   97.14    5.76
   3   7   7  107.07    5.93
   3  -7   8    1.58    1.49
   3   7   8    0.55    1.26
   3   7   8    0.56    0.58
   3   7   8    1.52    0.67
   3   7   8    1.30    0.60
   3   7   8    0.98    0.57
   3   7   9   49.32    3.66
   3   7   9   46.77    3.61
   3   7   9   43.29    3.66
   3  -7   9   62.27    7.46
   3   7   9   33.95    5.80
   3   7   9   51.26    3.38
   3  -7  10   17.14    2.17
   3   7  10   15.93    2.13
   3  -7  10   16.24    4.02
   3   7  10   14.51    3.96
   3   7  10   14.70    1.74
   3   7  10   17.11    2.09
   3  -7  11   40.43    3.57
   3   7  11   34.18    3.43
   3   7  11   34.38    6.23
   3  -7  11   41.70    6.74
   3   7  11   37.13    3.02
   3   7  11   36.30    3.26
   3   7  12   10.49    1.92
   3  -7  12   13.15    2.05
   3  -7  12   13.59    3.93
   3   7  12   16.57    4.52
   3   7  12   14.52    1.81
   3   7  12   14.59    2.01
   3  -7  13  137.35    8.09
   3   7  13  113.88    7.89
   3  -7  13  148.79   13.85
   3   7  13  130.08   13.56
   3   7  13  135.96    7.81
   3   7  14  201.29   11.89
   3   7  14  182.47   17.64
   3   7  14  222.20   11.49
   3  -7  15  172.96    9.19
   3   7  15  141.58    9.12
   3  -7  15  142.62    8.16
   3   7  15  163.93    8.73
   3  -7  16    1.76    0.98
   3   7  16    3.54    1.32
   3  -7  16    1.11    0.67
   3   7  16    1.99    1.13
   3   7  16    3.45    1.01
   3   7  17  181.56    9.82
   3   7  17  181.37    9.01
   3   7  17  199.43    9.83
   3  -7  18    6.55    1.23
   3   7  18    4.57    1.14
  -3   7 -18    4.89    0.85
   3   7  18    4.66    1.16
   3   7  19    3.81    1.00
   3   7  20  117.75    6.06
   3   8 -23    1.28    0.33
   3   8 -22    8.21    0.95
  -3   8  22    7.26    1.01
  -3   8  21   13.85    1.74
  -3   8  21   16.37    1.79
   3   8 -21   13.87    1.45
  -3   8  20   51.80    3.39
  -3   8  20   58.02    3.03
  -3   8  20    0.34    0.23
  -3   8  20    0.51    0.30
   3   8 -20   57.18    2.86
  -3   8  20   43.37    3.03
  -3   8  19    0.86    0.69
  -3   8  19    2.37    0.98
  -3   8  19    2.21    0.90
  -3   8  19    2.33    0.89
  -3   8  19    2.40    0.82
  -3  -8  19    2.30    0.52
  -3  -8  18  664.24   26.11
  -3   8  18  501.38   27.12
  -3   8  18  517.56   26.97
  -3   8  18  708.95   27.51
  -3   8  18  697.48   28.14
  -3   8  17   28.44    2.79
  -3  -8  17   22.92    1.98
  -3   8  17   29.93    3.11
  -3   8  16   81.87    5.41
  -3  -8  16   77.27    4.40
  -3   8  16   79.73    4.59
  -3  -8  16   73.32    9.50
  -3   8  16   78.18    5.72
  -3  -8  15   38.50    7.01
  -3   8  15   42.51    4.03
  -3  -8  15   53.73    5.80
  -3  -8  15   44.42    2.98
  -3   8  15   48.99    3.19
  -3  -8  15   43.71    4.82
  -3   8  14   37.56    3.70
  -3  -8  14   31.64    6.61
   3   8 -14   33.76    5.51
  -3   8  14   40.19    2.81
  -3  -8  14   42.55    5.15
  -3   8  14   38.21    5.80
  -3  -8  14   44.02    4.78
  -3  -8  13  186.44   16.94
  -3   8  13  188.99   10.29
   3   8 -13  161.08   13.25
  -3  -8  13  166.60   12.02
  -3   8  13  199.70   14.12
  -3  -8  13  174.23   11.14
  -3   8  12 1063.61   44.87
  -3  -8  12 1044.09   54.67
  -3  -8  12  996.36   45.90
   3   8 -12  961.31   49.07
  -3   8  12 1102.92   49.76
  -3  -8  11   14.62    4.36
  -3   8  11   15.95    2.23
   3   8 -11   13.59    3.17
  -3   8  11   21.64    3.90
   3  -8 -11   13.18    3.02
  -3  -8  11   13.73    2.33
  -3   8  11   10.05    2.68
  -3  -8  10   81.81   10.47
  -3  -8  10   84.04    6.42
  -3   8  10   89.90    6.70
   3  -8 -10  101.62    8.41
  -3   8  10  100.38    8.45
   3   8 -10   81.11    8.00
  -3   8  10   98.68    8.43
  -3  -8   9   44.57    4.11
  -3   8   9   44.23    4.18
  -3   8   9   48.15    5.32
   3  -8  -9   48.42    5.36
   3   8  -9   50.06    5.74
  -3   8   9   43.75    5.28
  -3   8   8    3.62    1.10
  -3  -8   8    2.52    0.90
  -3   8   8    2.72    1.43
   3   8  -8    2.57    1.35
  -3   8   8    5.99    1.81
   3  -8  -8    2.92    1.50
  -3   8   7    3.75    1.56
   3  -8  -7    2.57    1.28
  -3   8   7    3.25    1.37
   3   8  -7    3.32    1.39
  -3   8   6    6.83    1.73
   3  -8  -6    6.85    1.63
   3   8  -6    5.87    1.59
  -3   8   6    5.17    1.88
  -3   8   5  193.14   10.77
   3  -8  -5  196.96    8.96
  -3   8   5  193.25    8.63
   3   8  -5  157.75   10.18
   3   8  -5  158.30    9.22
  -3   8   4  224.05   11.27
   3  -8  -4  218.20    9.64
  -3   8   4  205.36    9.15
  -3   8   3   14.95    2.07
   3  -8  -3   16.42    1.66
   3   8  -3   12.08    1.73
   3   8  -3   12.84    1.80
  -3   8   2   57.55    4.04
   3  -8  -2   64.00    3.61
   3   8  -2   60.41    4.32
  -3   8   1   57.04    3.87
   3  -8  -1   51.08    3.06
   3  -8  -1   63.46    3.74
   3   8  -1   56.13    4.43
  -3   8   0  191.66    9.45
   3   8   0  206.27   11.04
   3  -8   0  189.25    8.98
   3  -8   0  218.59    9.72
   3   8   1   56.53    4.76
   3   8   2    0.73    0.69
   3   8   3    4.85    0.93
  -3  -8  -3    2.19    1.10
   3   8   4   12.93    1.53
   3   8   5    2.14    0.76
   3   8   5    4.15    0.77
   3   8   5    3.56    0.75
   3   8   6  600.46   24.24
   3   8   6  510.35   24.36
   3   8   6  578.26   24.19
   3   8   6  562.67   24.66
   3   8   7    4.90    0.92
   3   8   7    4.54    0.98
   3   8   7    2.73    0.95
   3   8   7    4.99    2.10
   3  -8   7    3.48    1.60
   3   8   8  582.43   23.47
   3   8   8  546.14   23.91
   3   8   8  513.99   23.73
   3   8   9   37.35    2.86
   3   8   9   31.41    5.28
   3   8   9   36.96    3.18
   3   8   9   36.58    3.12
   3   8  10  227.75   10.51
   3   8  10  179.97   10.59
   3   8  10  191.52   15.57
   3   8  10  222.08   10.98
   3   8  10  214.74   10.84
   3   8  11  153.31    7.96
   3   8  11  121.13   12.39
   3   8  11  130.74    8.20
   3   8  11  154.67    8.48
   3   8  11  155.24    8.41
   3   8  12  585.20   29.80
   3   8  12  558.49   36.34
   3   8  12  720.78   30.15
   3   8  12  751.24   29.67
   3   8  13    2.55    1.04
   3   8  13    2.51    1.08
   3   8  14  270.14   14.90
   3   8  14  336.08   15.13
   3   8  15   25.17    2.86
   3   8  15   26.14    2.74
   3  -8  15   26.07    2.53
   3  -8  16  197.89   10.33
  -3   8 -16  219.22   10.13
   3   8  16  224.86   11.37
   3   8  16  230.96   10.95
   3   8  16  197.43   10.95
   3   8  17    3.35    1.12
  -3   8 -17    2.13    0.65
   3   8  17    0.43    0.29
   3  -8  17    3.06    0.81
  -3   8 -18    2.90    0.60
   3   8  18    3.17    0.99
   3   8  19   28.25    2.44
   3   8  20   40.60    2.67
   3   9 -22    2.72    0.52
  -3   9  21   14.66    1.68
   3   9 -21   16.25    1.41
  -3   9  21   11.25    1.42
  -3   9  20    9.61    1.48
  -3   9  20    8.28    1.25
   3   9 -20    9.25    1.20
  -3   9  20    8.64    1.39
  -3   9  19  160.00    8.81
  -3   9  19  154.69    8.76
   3   9 -19  168.44    8.18
  -3   9  19  165.69    8.50
  -3   9  18  180.06   10.37
  -3   9  18  208.71   10.38
   3   9 -18  206.49    9.90
  -3   9  18  204.20   10.71
  -3   9  17    1.54    0.94
  -3   9  17    0.35    0.81
  -3   9  17    0.95    0.76
  -3   9  16   36.85    3.31
  -3   9  16   29.35    3.23
  -3   9  15   10.13    3.56
  -3   9  15   14.42    2.32
  -3   9  14  244.80   12.82
  -3  -9  14  217.10   19.28
  -3   9  14  230.51   19.04
  -3   9  13    0.82    1.34
  -3   9  13    1.62    1.40
  -3  -9  13    1.49    0.86
  -3   9  13    0.86    0.79
  -3  -9  13    3.71    2.40
  -3   9  12   96.05    9.06
  -3  -9  12   97.71    8.13
  -3   9  12   93.19   10.91
  -3  -9  12   92.73   11.75
  -3   9  12   92.07    6.49
  -3   9  11  307.04   18.63
  -3   9  11  288.07   18.47
  -3   9  11  318.24   21.91
  -3  -9  11  314.94   23.39
  -3   9  11  301.66   15.35
  -3   9  10    2.15    1.85
  -3   9  10    2.37    1.46
  -3  -9  10    4.43    2.51
   3   9 -10    4.65    1.06
  -3   9  10    4.25    1.84
  -3   9   9   37.04    6.17
  -3   9   9   37.27    5.19
  -3   9   9   38.05    4.82
   3   9  -9   39.07    3.06
  -3   9   8   39.74    4.63
  -3   9   8   32.42    2.44
  -3   9   8   38.81    5.07
   3  -9  -8   32.44    2.70
  -3  -9   8   36.39    6.74
   3   9  -8   34.66    2.80
  -3   9   7    6.60    1.10
  -3   9   7    7.75    1.95
  -3   9   7    8.22    2.52
  -3   9   7    7.73    1.04
   3  -9  -7    7.14    1.19
  -3  -9   7    8.40    3.07
   3   9  -7    7.13    1.18
  -3   9   6  375.43   18.48
  -3   9   6  353.21   20.22
   3  -9  -6  358.09   15.91
  -3   9   6  334.51   15.55
   3   9  -6  350.10   15.84
  -3   9   5  169.88    9.91
   3  -9  -5  175.08    8.20
  -3   9   5  163.30    7.73
   3   9  -5  155.51    7.93
   3  -9  -4  442.92   18.17
  -3   9   4  396.22   19.53
  -3   9   4  404.09   17.52
   3  -9  -3  412.08   17.44
  -3   9   3  392.58   18.51
   3   9  -2   36.11    3.56
   3  -9  -2   36.37    2.81
  -3   9   2   33.81    3.11
   3  -9  -1  236.08   11.16
   3   9  -1  227.61   12.55
   3  -9   0   91.59    5.31
   3   9   0   88.29    6.53
   3   9   1    8.53    1.79
  -3  -9  -1    6.48    2.14
   3   9   2   69.22    5.95
  -3  -9  -2   71.66    6.87
   3   9   3  278.25   12.56
   3   9   3  287.90   12.84
   3   9   4    0.93    0.66
   3   9   4    1.50    0.57
  -3   9  -5  271.16   11.91
   3   9   5  258.67   12.50
   3   9   5  272.36   12.19
   3   9   5  251.00   12.24
   3   9   5  262.79   12.04
  -3   9  -6   84.03    4.63
   3   9   6   85.03    5.21
   3   9   6   90.51    4.91
   3   9   6   76.08    4.93
   3   9   6   87.06    4.81
  -3   9  -7  209.47    9.81
   3   9   7  204.57   10.51
   3   9   7  209.89   10.03
   3   9   7  195.27   10.31
   3   9   7  222.18   10.10
  -3   9  -8  213.52    9.93
   3   9   8  216.18   10.20
   3   9   8  193.54   10.44
   3   9   8  210.01   10.72
  -3   9  -9   57.52    3.78
   3   9   9   70.28    4.23
   3   9   9   56.80    4.29
   3   9   9   62.47    4.51
   3   9  10    2.59    0.96
   3   9  10    3.73    0.99
  -3   9 -10    3.01    0.81
   3   9  10    3.40    1.17
  -3   9 -11  193.36    9.62
   3   9  11  199.50   10.09
   3   9  11  204.94   10.69
  -3   9 -12  160.96    8.49
   3   9  12  182.35    9.15
   3   9  12  176.72    9.61
  -3   9 -13   57.50    3.86
   3   9  13   64.68    4.72
  -3   9 -14    4.50    0.98
   3   9  14    6.75    1.46
  -3   9 -15    8.92    1.25
   3  -9  15    6.85    1.32
   3   9  15   10.14    1.62
   3  -9  16    1.61    0.75
  -3   9 -16    1.99    0.66
   3   9  16    3.21    1.22
   3  -9  17   83.30    4.65
   3   9  17   93.00    5.55
  -3   9 -17   78.81    4.32
   3   9  18   76.18    4.81
   3   9  19   34.37    2.63
   3  10 -22    2.68    0.44
  -3  10  21    0.08    0.20
   3  10 -21   25.45    1.44
  -3  10  20   27.75    2.24
  -3  10  20   27.57    2.40
   3  10 -20   24.53    1.94
  -3  10  20   21.11    2.11
  -3  10  19   84.00    4.95
  -3  10  19   74.43    4.92
   3  10 -19   79.29    4.48
  -3  10  19   74.77    4.97
  -3  10  18  201.20   10.02
  -3  10  18  190.19   10.02
   3  10 -18  194.39    9.42
  -3  10  18  187.22   10.17
  -3  10  17   77.03    5.36
  -3  10  17   81.44    5.69
  -3  10  17   84.19    5.50
   3  10 -17   89.38    5.09
  -3  10  16  120.47    7.48
   3  10 -16  128.27    7.08
  -3  10  16  132.68    8.02
  -3  10  16  144.95    7.90
  -3  10  15   14.42    2.27
  -3 -10  15   15.35    4.22
  -3  10  15   17.81    4.53
  -3  10  15   14.95    2.07
   3  10 -15   15.32    1.90
  -3 -10  14    2.74    1.82
  -3  10  14    1.77    1.02
  -3  10  14    0.86    1.40
   3 -10 -14    1.85    0.78
  -3  10  14    1.48    0.76
   3  10 -14    0.79    0.70
  -3  10  13   65.03    4.90
   3 -10 -13   85.47    5.04
  -3 -10  13   77.17   10.82
  -3  10  13   76.15    5.77
  -3  10  13   70.69    9.67
   3  10 -13   78.61    4.97
  -3  10  12   19.26    2.23
   3 -10 -12   18.48    2.06
  -3  10  12   16.04    2.46
  -3 -10  12   17.36    5.15
  -3  10  12   19.88    4.93
   3  10 -12   18.34    2.12
  -3  10  11   20.19    2.22
  -3  10  11   13.62    4.11
  -3  10  11   18.17    3.89
   3 -10 -11   19.62    2.13
  -3 -10  11   27.76    6.21
  -3  10  11   19.20    2.68
   3  10 -11   22.39    2.26
  -3  10  10  722.17   31.84
  -3  10  10  742.79   36.41
  -3  10  10  745.93   40.97
  -3  10  10  687.17   37.12
   3 -10 -10  751.90   31.78
  -3  10  10  708.55   33.06
   3  10 -10  761.99   31.82
  -3  10   9   54.27    3.91
  -3  10   9   62.40    6.31
  -3  10   9   46.44    7.34
  -3  10   9   50.26    6.44
   3 -10  -9   64.15    4.13
  -3 -10   9   52.34    8.39
   3  10  -9   57.43    3.96
  -3  10   8  361.77   16.64
  -3  10   8  386.99   20.22
  -3  10   8  349.93   23.86
  -3  10   8  344.74   16.23
  -3  10   8  366.48   21.84
   3 -10  -8  376.81   16.83
  -3 -10   8  392.92   26.34
   3  10  -8  384.51   16.87
  -3  10   7   59.00    3.87
  -3  10   7   52.52    5.46
  -3  10   7   55.80    3.61
  -3  10   7   55.98    6.70
   3 -10  -7   60.25    4.04
  -3 -10   7   75.12    9.68
   3  10  -7   63.43    4.11
   3  10  -6  257.25   12.06
  -3  10   6  280.86   12.73
  -3  10   6  283.75   15.39
  -3  10   6  264.67   12.45
  -3  10   6  291.48   17.90
   3 -10  -6  296.16   13.15
  -3 -10   6  286.75   20.87
   3  10  -6  285.36   13.00
   3  10  -5  242.20   11.84
   3  10  -5  242.70   11.14
   3 -10  -5  267.28   12.22
  -3  10   5  250.41   13.80
  -3  10   5  252.98   11.50
   3 -10  -5  243.91   11.97
  -3  10   5  259.25   11.66
  -3 -10   5  241.20   18.66
   3  10  -4   23.40    2.13
   3  10  -4   23.01    1.78
   3 -10  -4   22.99    2.29
  -3  10   4   21.83    2.86
  -3  10   4   20.46    1.85
   3  10  -4   20.80    2.66
  -3 -10   4   19.91    4.64
   3 -10  -4   24.39    2.32
  -3  10   4   26.31    2.04
   3 -10  -3    1.04    0.58
  -3 -10   3    1.28    1.28
   3  10  -3    0.74    0.49
   3  10  -3    0.23    0.37
   3 -10  -3    1.49    0.66
   3  10  -3    0.80    0.41
   3 -10  -2  289.91   12.59
   3  10  -2  249.45   12.02
   3  10  -2  243.11   13.81
   3  10  -2  250.39   11.60
  -3 -10   2  310.73   19.10
   3 -10  -1  223.66   10.40
   3  10  -1  188.13   11.73
   3  10  -1  201.87    9.54
  -3 -10   1  219.14   15.39
   3  10  -1  206.78    9.91
   3  10   0  260.34   12.09
   3  10   0  251.01   14.37
   3  10   0  262.98   11.82
  -3 -10   0  268.92   17.40
   3  10   1   25.44    3.44
   3  10   1   27.73    2.30
  -3 -10  -1   35.21    4.94
   3  10   1   27.09    1.98
   3  10   2  538.73   25.23
   3  10   2  500.76   21.76
  -3 -10  -2  541.48   26.76
   3  10   2  491.76   21.28
  -3  10  -2  490.58   21.34
   3  10   3    4.11    0.76
   3  10   3    3.44    0.83
  -3  10  -3    2.38    0.63
   3  10   4  114.17    5.99
   3  10   4  114.49    5.74
   3  10   4   95.79    5.70
  -3  10  -4  112.28    5.65
   3  10   5  160.98    8.04
   3  10   5  159.83    7.83
   3  10   5  147.85    7.98
  -3  10  -5  163.98    7.73
  -3  10  -6   12.02    1.38
   3  10   6   12.65    1.72
   3  10   6   12.64    1.55
   3  10   6   11.72    1.55
   3  10   6   12.38    1.43
  -3  10  -7  167.12    8.11
   3  10   7  170.51    8.93
   3  10   7  166.73    8.41
   3  10   7  156.77    8.60
   3  10   7  166.29    8.30
  -3  10  -8  151.24    7.35
   3  10   8  144.26    7.52
   3  10   8  136.52    7.85
   3  10   8  140.33    8.03
  -3  10  -9    3.72    0.84
   3  10   9    4.55    1.15
   3  10   9    5.01    1.29
   3  10   9    5.80    1.14
   3  10  10  292.96   14.15
   3  10  10  265.98   13.83
  -3  10 -10  277.14   13.03
   3  10  10  300.68   13.62
  -3  10 -11   32.89    2.65
   3  10  11   34.69    2.95
   3  10  11   34.41    3.28
  -3  10 -12   75.55    4.53
   3  10  12   76.10    5.34
  -3  10 -13   80.15    4.69
   3  10  13   80.68    5.53
  -3  10 -14   21.61    1.97
   3  10  14   23.66    2.55
   3 -10  15    2.16    0.84
  -3  10 -15    0.25    0.51
   3 -10  16  127.29    6.62
  -3  10 -16  121.53    6.05
   3 -10  17    1.62    0.59
   3  10  17    1.38    0.78
   3  10  18  552.00   24.06
   3  10  19   44.31    2.92
   3  11 -21    0.38    0.26
  -3  11  20    1.24    0.50
  -3  11  20    0.18    0.37
  -3  11  19    0.23    0.50
  -3  11  19    0.77    0.58
  -3  11  19    1.22    0.64
  -3  11  18   31.14    2.71
  -3  11  18   24.18    2.54
  -3  11  18   29.50    2.63
  -3  11  17   68.63    4.83
  -3  11  17   73.31    5.18
  -3  11  16    5.71    1.44
  -3  11  16    4.28    1.13
  -3  11  16    6.56    1.49
   3  11 -16    4.20    1.05
  -3  11  15   40.91    3.96
   3  11 -15   47.56    3.45
  -3  11  15   45.16    3.65
  -3  11  15   46.04    3.91
  -3  11  14   41.24    7.06
   3  11 -14   43.46    3.29
  -3  11  14   39.59    3.91
  -3 -11  14   36.10    7.02
  -3  11  14   39.14    3.42
   3 -11 -13  216.29   10.45
  -3  11  13  165.98   16.44
   3  11 -13  221.14   10.48
  -3  11  13  198.40   11.51
  -3 -11  13  210.50   18.78
  -3  11  13  194.17   10.53
   3 -11 -12   12.08    1.69
  -3  11  12   10.32    3.61
   3  11 -12   13.71    1.77
  -3  11  12    8.02    1.94
  -3 -11  12   10.80    4.26
  -3  11  12   11.31    1.73
  -3  11  11    4.21    2.57
  -3  11  11    0.58    1.89
   3  11 -11    2.91    0.96
  -3  11  11    1.68    1.08
   3 -11 -11    1.39    0.72
  -3  11  11    2.96    0.94
  -3  11  10    2.47    2.52
  -3  11  10    4.64    2.12
   3  11 -10    6.04    1.24
  -3  11  10    3.11    1.11
   3 -11 -10    3.34    0.97
  -3  11  10    2.12    0.87
   3 -11  -9   18.30    2.06
  -3  11   9   18.56    4.62
  -3  11   9   15.55    3.71
   3  11  -9   17.34    2.01
  -3 -11   9   18.93    5.29
  -3  11   9   16.77    2.01
   3 -11  -8  160.09    8.33
  -3  11   8  154.04   14.40
  -3  11   8  148.14    7.80
  -3  11   8  153.27   12.65
   3  11  -8  162.70    8.24
  -3 -11   8  182.39   16.44
  -3  11   8  146.68    8.05
   3 -11  -7  234.67   11.49
  -3  11   7  228.32   10.95
  -3  11   7  215.25   15.98
   3  11  -7  240.28   11.37
  -3 -11   7  242.98   19.44
  -3  11   7  226.98   11.16
  -3  11   6   75.66    4.52
   3 -11  -6   76.94    4.85
  -3  11   6   71.69    4.33
  -3  11   6   68.43    7.88
   3  11  -6   76.99    4.73
  -3 -11   6   73.54    9.79
   3  11  -6   67.22    3.91
   3  11  -5  599.31   27.12
   3 -11  -5  688.29   28.46
   3 -11  -5  666.75   28.30
  -3  11   5  671.81   27.69
  -3  11   5  661.98   34.34
   3  11  -5  650.22   28.06
  -3 -11   5  699.45   37.77
  -3  11   5  635.41   27.68
   3  11  -4   22.49    1.85
   3 -11  -4   25.41    2.54
   3 -11  -4   26.65    2.52
  -3  11   4   26.32    2.17
   3  11  -4   23.24    2.27
  -3  11   4   25.97    2.14
   3 -11  -3  496.96   21.82
   3 -11  -3  524.44   21.81
   3  11  -3  485.08   21.39
  -3  11   3  498.77   21.03
   3  11  -3  418.07   22.99
   3  11  -3  461.06   20.66
  -3 -11   3  512.71   29.34
   3 -11  -2   21.14    2.24
   3  11  -2   16.39    2.64
  -3  11   2   19.72    1.79
   3  11  -2   17.59    1.65
  -3 -11   2   18.51    4.30
   3  11  -2   20.14    2.02
   3  11  -1  312.87   14.26
   3  11  -1  289.45   16.46
  -3  11   1  313.14   13.83
  -3 -11   1  313.56   20.30
   3  11  -1  302.79   13.72
   3  11   0    0.31    0.73
   3  11   0    0.07    0.30
   3  11   0    0.34    0.46
  -3  11   0    0.18    0.42
   3  11   1  815.19   37.78
   3  11   1  802.81   34.36
   3  11   1  802.04   33.66
  -3  11  -1  811.60   33.93
  -3 -11  -1  832.34   40.36
   3  11   2  151.82   10.52
   3  11   2  149.15    7.79
   3  11   2  152.04    7.26
  -3  11  -2  149.01    7.39
   3  11   3  115.56    6.30
   3  11   3  106.53    5.72
  -3  11  -3  117.86    5.91
   3  11   4   19.33    1.98
   3  11   4   15.06    1.65
   3  11   4   15.56    1.58
  -3  11  -4   18.32    1.67
   3  11   5    5.12    0.92
   3  11   5    5.50    1.04
   3  11   5    3.87    0.96
  -3  11  -5    4.42    0.88
   3  11   6    1.63    0.59
   3  11   6    0.63    0.55
   3  11   6    1.96    0.71
  -3  11  -6    2.13    0.67
   3  11   7   70.27    4.49
   3  11   7   60.96    4.46
  -3  11  -7   70.96    4.17
   3  11   7   74.84    4.39
   3  11   8   57.92    4.19
   3  11   8   58.21    3.86
  -3  11  -8   56.42    3.64
   3  11   9    3.96    0.97
   3  11   9    6.15    1.38
  -3  11  -9    3.21    0.83
   3  11  10   12.41    1.89
   3  11  10   13.50    1.71
  -3  11 -10   11.78    1.46
  -3  11 -11    0.61    0.55
   3  11  11    0.88    0.76
   3  11  11    1.34    0.69
  -3  11 -12    7.75    1.16
  -3  11 -13   86.44    4.83
  -3  11 -14    1.99    0.63
  -3  11 -15    3.31    0.71
   3 -11  15    3.39    0.96
   3  11  15    3.37    1.14
  -3  11 -16   20.77    1.61
   3 -11  16   25.73    2.12
   3 -11  17    5.30    0.87
  -3  12  19   99.85    5.75
  -3  12  19  110.49    5.84
  -3  12  18  240.95   11.96
  -3  12  18  235.99   11.70
  -3  12  17  151.92    8.68
  -3  12  17  161.91    8.45
  -3  12  17  178.00    8.84
  -3  12  16    4.50    1.05
  -3  12  16    3.51    1.21
  -3  12  16    4.30    1.20
   3  12 -15   46.02    3.25
  -3  12  15   40.19    3.33
  -3  12  15   39.38    3.76
   3  12 -14   13.69    1.75
  -3  12  14   15.48    2.34
  -3  12  14   14.97    1.92
  -3  12  13  156.72   15.71
   3  12 -13  208.04    9.88
  -3  12  13  184.38   10.95
  -3 -12  13  184.67   17.31
  -3  12  13  196.48   10.11
   3 -12 -12   86.04    5.28
  -3  12  12   83.55   10.41
   3  12 -12   86.53    5.24
  -3  12  12   86.05    6.36
  -3 -12  12   82.79   11.24
  -3  12  12   78.60    5.31
   3 -12 -11   17.62    2.09
  -3  12  11   20.79    4.94
  -3  12  11   17.77    3.99
   3  12 -11   17.55    2.01
  -3  12  11   13.45    2.39
  -3  12  11   15.36    1.97
   3 -12 -10  242.95   11.57
  -3  12  10  220.60   16.59
  -3  12  10  187.69   17.66
   3  12 -10  233.22   11.39
  -3 -12  10  236.58   20.40
  -3  12  10  220.44   12.84
  -3  12  10  232.05   11.50
   3 -12  -9   12.50    1.78
  -3  12   9    7.61    2.96
  -3  12   9    9.40    3.10
   3  12  -9   10.53    1.58
  -3  12   9   11.60    2.24
  -3 -12   9   14.59    4.65
  -3  12   9   10.71    1.61
   3 -12  -8  190.93    9.72
  -3  12   8  162.43   15.64
  -3  12   8  180.28    9.23
  -3  12   8  207.01   15.45
   3  12  -8  194.89    9.65
  -3 -12   8  200.01   17.90
  -3  12   8  178.55    9.43
   3 -12  -7  599.84   25.98
  -3  12   7  571.93   25.36
  -3  12   7  550.57   31.97
   3  12  -7  595.11   25.79
  -3 -12   7  596.96   36.17
  -3  12   7  585.12   25.59
   3 -12  -6   33.70    2.96
  -3  12   6   29.87    2.53
  -3  12   6   35.10    5.74
   3  12  -6   31.71    2.81
  -3 -12   6   25.95    5.87
  -3  12   6   30.86    2.62
   3 -12  -5   14.93    1.92
  -3 -12   5    9.82    3.58
  -3  12   5   19.76    4.26
  -3  12   5   13.98    1.63
   3  12  -5   17.15    1.93
   3  12  -5   12.80    1.36
   3  12  -4  117.54    5.97
   3 -12  -4  112.80    6.79
  -3  12   4  118.46    6.36
  -3 -12   4  121.64   12.40
   3 -12  -4  121.19    7.00
   3  12  -4  121.23    6.72
   3 -12  -3    4.80    1.20
   3  12  -3    4.89    1.13
  -3  12   3    3.80    0.89
   3  12  -3    4.90    0.87
  -3 -12   3    6.50    2.77
   3  12  -2    2.15    0.95
  -3  12   2    2.55    0.73
   3  12  -2    2.63    0.85
  -3  12   1   27.98    2.26
   3  12  -1   28.76    2.57
   3  12  -1   24.23    3.47
  -3 -12   1   21.88    4.64
   3  12   0    1.39    0.99
   3  12   0    2.97    0.87
  -3  12   0    2.13    0.69
  -3 -12   0    2.31    1.49
   3  12   1  260.92   12.07
   3  12   1  253.00   15.73
   3  12   1  290.37   13.10
  -3  12  -1  279.15   12.50
   3  12   2  407.65   17.55
  -3  12  -2  394.35   17.77
   3  12   2  412.09   18.41
   3  12   3   82.06    4.55
  -3  12  -3   81.54    4.69
   3  12   3   86.75    5.21
   3  12   4  117.68    6.29
  -3  12  -4  127.34    6.47
   3  12   4  131.18    6.99
   3  12   5    0.96    0.52
   3  12   5    1.59    0.75
  -3  12  -5    1.05    0.55
   3  12   6   47.61    3.49
   3  12   6   43.94    3.11
  -3  12  -6   43.76    3.04
   3  12   7  159.91    8.42
  -3  12  -7  157.43    7.92
   3  12   7  162.76    8.12
  -3  12  -8  197.94    9.54
   3  12   8  200.25    9.81
  -3  12  -9   62.80    3.91
   3  12   9   64.69    4.20
  -3  12 -10   59.68    3.71
   3  12  10   57.17    3.95
  -3  12 -11  254.12   11.73
  -3  12 -12   73.33    4.24
  -3  12 -13   78.47    4.37
  -3  12 -14   26.50    2.03
   3 -12  14   32.95    2.72
   3  12  14   33.67    3.05
  -3  12 -15    1.00    0.41
   3 -12  15    2.40    0.88
   3  12  15    1.99    0.92
   3 -12  16   38.86    2.17
   3  12  16   44.62    2.82
   3 -12  17   91.74    4.92
   3  12  17  130.93    5.96
   3  12  18  172.70    8.04
  -3  13  19    9.28    1.14
  -3  13  18  222.72   10.56
  -3  13  18  216.69   10.75
  -3  13  17   26.28    2.48
  -3  13  17   29.19    2.35
  -3  13  16   27.23    2.75
  -3  13  16   28.94    2.47
  -3  13  15  282.49   14.14
  -3  13  15  283.75   13.37
  -3  13  14  423.33   20.68
  -3  13  14  429.51   19.74
  -3  13  14  462.24   20.37
   3  13 -13   40.93    3.14
  -3  13  13   42.56    3.35
  -3  13  13   41.54    4.03
   3  13 -12    2.32    0.91
  -3  13  12    1.89    1.13
  -3  13  12    3.39    0.97
   3 -13 -11  229.21   10.92
   3  13 -11  223.83   10.82
  -3  13  11  214.96   12.36
  -3  13  11  212.19   10.90
   3 -13 -10   94.76    5.80
  -3  13  10   92.84    9.96
   3  13 -10  106.16    5.90
  -3  13  10   90.79    6.92
  -3 -13  10  117.46   13.20
  -3  13  10   96.32    5.81
  -3  13   9    1.71    1.40
  -3  13   9    5.30    2.42
   3  13  -9    2.14    0.92
  -3 -13   9    4.80    2.93
  -3  13   9    2.88    1.52
  -3  13   9    3.01    0.90
   3 -13  -9    2.02    0.84
   3 -13  -8   32.99    2.96
  -3  13   8   29.83    5.96
  -3  13   8   36.80    6.07
   3  13  -8   34.29    2.91
  -3 -13   8   25.46    6.10
  -3  13   8   30.59    2.74
   3 -13  -7   15.28    2.01
  -3  13   7   16.44    1.84
  -3  13   7   10.96    3.82
  -3  13   7   14.76    3.85
   3  13  -7   18.63    2.13
  -3 -13   7   20.17    5.22
  -3  13   7   14.78    1.80
  -3  13   6  170.33    8.45
  -3  13   6  143.52   13.35
  -3 -13   6  150.02   15.11
   3  13  -6  172.47    8.81
   3 -13  -6  155.86    8.75
  -3  13   5    4.80    0.98
   3  13  -5    4.67    1.11
  -3  13   5    2.00    1.55
  -3 -13   5    2.52    1.94
   3  13  -4   27.68    2.63
  -3  13   4   21.96    4.73
  -3  13   4   24.51    2.29
  -3 -13   4   23.76    5.35
   3 -13  -4   28.52    2.81
   3  13  -3  317.68   15.40
  -3  13   3  329.02   15.00
  -3 -13   3  308.90   22.27
   3 -13  -3  341.75   15.83
  -3  13   2   13.97    1.63
   3  13  -2   13.17    1.75
  -3 -13   2   17.89    4.24
   3 -13  -2   11.66    1.81
  -3 -13   1   71.36    8.55
   3  13  -1   71.91    4.86
  -3  13   1   79.56    4.61
  -3  13   0  169.80    8.28
   3  13   0  175.51    8.87
  -3  13  -1   69.25    4.27
   3  13   1   69.51    6.73
   3  13   1   74.56    4.82
   3  13   2   47.14    2.97
   3  13   2   49.00    3.70
  -3  13  -2   47.52    3.27
   3  13   3   46.16    3.07
   3  13   3   55.99    3.93
  -3  13  -3   52.65    3.41
   3  13   4  151.76    7.30
   3  13   4  143.12    7.96
  -3  13  -4  144.78    7.42
   3  13   5  220.60   10.34
   3  13   5  221.67   11.04
  -3  13  -5  220.02   10.44
   3  13   6   44.40    3.06
  -3  13  -6   40.38    2.99
  -3  13  -7   35.96    2.69
   3  13   7   36.68    2.75
  -3  13  -8  437.15   19.32
   3  13   8  447.08   19.54
  -3  13  -9  138.92    7.16
   3  13   9  146.46    7.43
  -3  13 -10   30.63    2.38
  -3  13 -11  216.68   10.08
  -3  13 -12   62.08    3.63
   3  13  13  115.80    6.64
  -3  13 -13  107.72    5.47
   3  13  14  185.20    9.33
   3 -13  14  174.67    8.85
   3  13  15  161.07    8.18
   3 -13  15  155.55    7.73
   3  13  16   10.44    1.27
   3 -13  16   10.33    1.05
   3  13  17   40.38    2.59
  -3  14  17   56.63    3.64
  -3  14  16    8.86    1.35
  -3  14  16    7.38    1.30
  -3  14  15   41.56    3.53
  -3  14  15   44.38    3.08
  -3  14  15   43.74    3.38
  -3  14  14   22.64    2.67
  -3  14  14   27.47    2.38
  -3  14  14   29.24    2.71
  -3  14  13  101.86    6.78
  -3  14  13   97.44    5.77
  -3  14  13  111.13    6.39
   3  14 -12  223.91   10.63
  -3  14  12  219.14   10.73
  -3  14  12  209.47   11.98
   3  14 -11  245.51   11.40
  -3  14  11  224.81   11.32
  -3  14  11  230.60   12.89
   3  14 -10    2.76    0.97
  -3  14  10    7.81    2.61
  -3  14  10    4.14    1.03
  -3 -14  10    4.57    2.36
  -3  14  10    4.31    1.61
  -3  14   9   78.63   10.29
  -3  14   9   83.60    9.67
  -3  14   9  100.29    7.28
   3  14  -9  100.81    5.84
  -3  14   8    1.66    1.36
  -3  14   8    2.76    1.59
  -3 -14   8    1.83    1.49
   3  14  -8    2.30    0.94
  -3  14   7   21.22    2.11
  -3  14   7   14.94    4.14
  -3  14   7   14.62    3.85
  -3 -14   7   24.06    5.60
   3  14  -7   20.90    2.24
  -3  14   6   65.87    9.33
  -3  14   6   78.29    4.83
  -3  14   6   77.59    9.30
  -3 -14   6   76.42   10.22
   3  14  -6   85.22    5.26
  -3  14   5   98.74    5.62
  -3  14   5   90.23   10.12
   3  14  -5  100.55    6.02
  -3 -14   5   77.92   10.37
  -3  14   4    6.90    1.21
   3  14  -4    7.15    1.39
  -3 -14   4    5.45    2.56
   3  14  -3   35.93    3.12
  -3  14   3   34.87    2.80
   3 -14  -3   37.49    3.31
  -3  14   2  100.03    5.57
   3  14  -2   86.91    5.80
   3 -14  -2   97.37    6.21
  -3 -14   2  108.59   11.03
   3 -14  -1    1.88    0.97
  -3  14   1    1.02    0.60
   3  14  -1    1.07    0.81
   3  14   0  340.84   15.87
  -3  14   0  327.87   15.12
   3  14   1    2.33    0.90
  -3  14  -1    2.66    0.76
   3  14   2   28.45    2.82
  -3  14  -2   32.73    2.53
  -3  14  -3   87.41    5.04
   3  14   3   90.59    5.67
   3  14   4   41.67    2.81
   3  14   4   44.70    3.55
  -3  14  -4   43.27    3.05
   3  14   5  371.09   16.64
  -3  14  -5  393.56   16.92
   3  14   5  373.34   17.55
   3  14   6  182.18    8.91
  -3  14  -6  190.50    9.08
   3  14   6  190.86    9.72
   3  14   7   24.64    2.07
  -3  14  -7   24.60    2.13
   3  14   8   96.08    5.14
  -3  14  -8   87.57    5.00
  -3  14  -9   23.98    2.02
  -3  14 -10   37.12    2.59
  -3  14 -11  157.49    7.55
   3  14  11  160.75    8.48
  -3  14 -12  163.41    7.76
   3  14  12  177.62    8.84
   3  14  13    4.81    1.08
   3  14  14  204.89    9.90
   3  14  15  108.98    5.64
   3 -14  15  114.97    5.50
   3 -14  15   99.87    5.37
   3 -14  16    7.00    0.79
  -3  15  17   28.93    2.07
  -3  15  16    1.59    0.61
  -3  15  16    2.02    0.65
  -3  15  15    9.50    1.42
  -3  15  15   11.05    1.41
  -3  15  14   43.26    3.52
  -3  15  14   43.04    3.19
  -3  15  13    5.07    1.12
  -3  15  13    6.38    1.46
  -3  15  12   79.31    5.73
  -3  15  12   79.93    5.04
  -3  15  11  131.15    8.28
  -3  15  11  133.35    7.39
   3  15 -10  100.96    5.69
  -3  15  10   92.17    6.82
   3  15  -9   15.30    1.81
  -3  15   9   12.46    2.35
   3  15  -8    3.64    1.04
  -3  15   8    3.09    1.40
   3  15  -7  160.88    8.38
  -3  15   7  153.45   13.45
  -3 -15   7  136.28   14.20
   3  15  -6  137.91    7.30
  -3  15   6  124.27    6.76
  -3  15   6  125.72   12.18
  -3 -15   6  125.01   12.88
   3  15  -5  252.48   11.89
  -3  15   5  236.16   11.32
  -3 -15   5  247.32   18.98
   3  15  -4  247.35   11.89
  -3  15   4  230.56   11.26
  -3 -15   4  216.31   17.67
   3 -15  -3  196.51    9.96
   3  15  -3  195.75    9.81
  -3  15   3  170.99    9.07
  -3 -15   3  168.51   14.82
   3 -15  -2  100.18    6.22
  -3  15   2   93.89    5.50
   3  15  -2   98.93    6.06
  -3  15   2   91.98   10.18
  -3  15   1    3.62    0.88
   3  15  -1    2.82    1.05
   3 -15  -1    1.69    1.00
   3 -15   0   11.61    1.88
   3  15   0   11.99    1.78
  -3  15   0   12.08    1.52
   3  15   1   47.96    3.78
  -3  15  -1   45.15    3.24
   3  15   2    2.69    0.97
  -3  15  -2    1.45    0.64
   3  15   3    1.39    0.78
  -3  15  -3    0.71    0.60
  -3  15  -4  479.59   21.05
   3  15   4  490.16   21.90
   3  15   5  497.45   21.89
  -3  15  -5  476.89   21.04
   3  15   6  103.71    6.01
  -3  15  -6   94.39    5.26
  -3  15  -7  116.03    6.01
  -3  15  -8    1.84    0.63
   3  15   8    0.54    0.39
  -3  15  -9   70.40    3.87
   3  15   9   62.35    4.10
  -3  15 -10   43.58    2.78
   3  15  10   45.64    3.21
  -3  15 -11   14.58    1.33
   3  15  11   15.03    1.62
   3 -15  12    0.83    0.67
   3  15  12    0.38    0.41
   3 -15  13    0.97    0.58
   3  15  13   -0.33    0.35
   3  15  14    0.38    0.18
   3 -15  14   83.92    3.03
   3 -15  15  134.60    6.23
  -3  16  16   59.10    3.22
  -3  16  15    1.37    0.46
  -3  16  15    0.61    0.45
  -3  16  14   25.02    2.29
  -3  16  14   25.18    2.03
  -3  16  13   25.93    2.54
  -3  16  13   27.67    2.23
  -3  16  12    1.87    0.64
  -3  16  12    2.67    1.00
  -3  16  11   31.44    3.20
  -3  16  11   31.12    2.57
  -3  16  10    1.68    0.63
  -3  16  10    2.49    1.31
   3  16  -9   78.80    4.55
  -3  16   9   63.34    4.29
  -3  16   9   74.81    5.67
  -3  16   8  121.07    8.10
   3  16  -8  125.38    6.79
   3  16  -7    1.13    0.74
  -3  16   6   18.06    1.84
   3  16  -6   17.52    2.04
  -3  16   5   86.80    5.13
   3  16  -5   95.50    5.63
   3  16  -4  202.92    9.94
  -3  16   4  181.12    9.24
  -3  16   3    1.31    0.68
   3  16  -3    2.20    1.03
   3 -16  -2  633.52   27.06
   3  16  -2  625.42   26.98
  -3  16   2  580.25   26.15
   3 -16  -1   98.51    6.19
   3  16  -1  101.08    6.19
  -3  16   1  101.53    5.61
   3 -16   0  126.53    7.36
  -3  16   0  119.50    6.51
   3  16   0  129.72    7.28
   3 -16   1    8.80    1.59
   3  16   1    8.37    1.49
  -3  16  -1    7.07    1.15
   3 -16   2  161.50    8.96
  -3  16  -2  159.31    8.05
   3  16   2  168.82    8.85
   3  16   3  106.56    6.09
  -3  16  -3   91.72    5.24
   3  16   4   78.04    4.89
  -3  16  -4   68.64    4.16
   3  16   5    1.79    0.86
  -3  16  -5    0.26    0.48
  -3  16  -6   31.71    2.33
  -3  16  -7    7.16    1.00
  -3  16  -8   10.15    1.15
  -3  16  -9   41.21    2.55
   3 -16  10  283.67   13.10
   3 -16  11   35.24    2.65
   3 -16  12   40.38    2.72
   3 -16  13    9.84    1.19
   3 -16  13   12.65    1.22
  -3  17  14    2.11    0.46
  -3  17  14    2.01    0.54
  -3  17  13  156.87    7.63
  -3  17  13  146.43    6.99
  -3  17  12    8.70    1.35
  -3  17  12    8.38    1.02
  -3  17  11   27.60    2.72
  -3  17  11   28.27    2.08
  -3  17  10   74.78    5.01
  -3  17  10   62.35    3.73
  -3  17   9  128.18    7.49
  -3  17   9  111.89    5.84
  -3  17   8  295.53    9.19
  -3  17   8    2.94    0.68
   3  17  -7   46.56    2.76
  -3  17   7   40.64    3.60
   3  17  -6    0.58    0.71
   3  17  -5   69.13    4.45
  -3  17   5   67.75    4.06
  -3  17   4   30.98    2.46
   3  17  -4   37.37    2.96
  -3  17   3   21.72    2.02
   3  17  -3   28.19    2.60
   3  17  -2  116.45    6.59
  -3  17   2  110.19    5.93
   3  17  -1   15.27    1.93
  -3  17   1   15.49    1.60
   3 -17  -1   14.68    1.88
  -3  17   0    4.19    0.88
   3  17   0    3.83    1.07
   3 -17   0    3.50    1.08
   3  17   1    4.77    1.13
  -3  17  -1    2.46    0.75
   3 -17   1    2.58    0.99
  -3  17  -2  331.06   15.42
   3  17   2  379.11   16.40
   3 -17   2  353.07   16.39
  -3  17  -3   17.04    1.65
   3  17   3   21.44    2.18
   3 -17   3   15.51    1.66
   3 -17   3   15.47    2.07
   3  17   4  111.62    6.21
  -3  17  -4  100.25    5.46
   3 -17   4  107.36    5.76
   3 -17   4  117.25    6.54
  -3  17  -5   30.08    2.22
   3 -17   5   30.26    2.45
   3 -17   5   31.81    2.88
  -3  17  -6   10.25    1.14
   3 -17   6   11.17    1.46
   3 -17   6   10.11    1.62
  -3  17  -7  191.31    9.18
   3 -17   7  211.34    9.86
   3 -17   8    5.07    1.22
   3 -17   8    7.02    1.12
   3 -17   9  113.04    6.27
   3 -17   9  112.90    5.90
   3 -17  10    0.52    0.58
   3 -17  10    0.32    0.55
   3 -17  11   44.84    3.07
   3 -17  11   50.20    2.94
   3 -17  12    0.72    0.39
  -3  18  12    1.27    0.53
  -3  18  11    4.76    0.96
  -3  18  10    3.48    0.91
  -3  18   9  138.87    7.68
  -3  18   8  270.44   13.36
  -3  18   7   15.70    2.18
  -3  18   6  146.23    8.79
   3  18  -6  160.96    7.83
   3  18  -5    0.21    0.59
   3  18  -4  120.99    6.53
   3  18  -3   66.90    4.14
  -3  18   3   58.71    3.54
   3  18  -2   26.19    2.33
  -3  18   2   20.16    1.74
  -3  18   1   34.64    2.45
   3  18  -1   41.26    3.06
  -3  18   0  144.12    7.25
   3 -18   0  148.81    7.78
   3  18   1    7.80    1.27
  -3  18  -1    8.35    1.06
   3 -18   1    8.01    1.26
   3  18   2  299.05   13.22
  -3  18  -2  264.11   12.36
   3 -18   2  291.87   13.21
   3  18   3  122.11    6.24
  -3  18  -3  102.43    5.44
   3 -18   3  117.26    6.29
   3 -18   4    2.23    0.81
  -3  18  -4    1.37    0.46
  -3  18  -5   29.07    1.98
   3 -18   5   34.77    2.74
   3 -18   5   28.80    2.11
   3 -18   6  113.38    5.98
   3 -18   6  100.84    5.31
   3 -18   7    0.84    0.67
   3 -18   7    1.47    0.56
   3 -18   8  326.28   14.13
   3 -18   8  300.05   13.51
   3 -18   9    5.36    1.00
   3 -18   9    5.71    0.82
   3 -18  10  148.37    6.91
   3 -18  10  138.69    6.53
  -3  19  10   24.39    1.90
  -3  19   9   84.53    4.80
  -3  19   8   30.60    2.57
  -3  19   7    9.16    1.42
   3  19  -6    2.45    0.66
  -3  19   6    2.68    0.91
   3  19  -5    4.76    0.89
  -3  19   5    5.10    1.23
   3 -19  -5    4.34    0.72
   3  19  -4   29.51    2.27
   3  19  -3  186.76    8.92
   3  19  -2    2.67    0.76
  -3  19   1   22.39    1.70
   3  19  -1   32.41    2.33
   3  19   0    8.37    1.18
  -3  19   0    6.29    0.81
   3  19   1    1.00    0.58
  -3  19  -1    0.56    0.32
   3  19   2   56.53    3.32
   3 -19   2   44.94    3.06
   3 -19   3    4.64    0.91
   3 -19   4   45.43    2.98
   3 -19   5    2.96    0.69
   3 -19   6    1.89    0.60
   3 -19   7   38.62    2.51
   3 -19   8    0.42    0.39
   3  20  -8   57.21    2.92
   3  20  -7   95.27    4.38
  -3  20   7   82.89    4.65
   3  20  -6   21.40    1.53
  -3  20   6   20.48    1.83
   3  20  -5   17.13    1.35
  -3  20   5   14.03    1.59
   3  20  -4    4.88    0.72
  -3  20   4    3.93    0.94
   3  20  -3    1.87    0.50
  -3  20   3    1.36    0.70
   3  20  -2   81.49    4.24
   3  20  -1  161.42    7.52
   3  20   0   23.32    1.75
  -3  21   2   66.77    3.60
  -4   0  24   11.81    1.41
  -4   0  24    9.68    1.40
  -4   0  23    0.79    0.74
  -4   0  23    0.30    0.40
  -4   0  23    0.44    0.68
  -4   0  22   46.87    3.16
  -4   0  22   48.31    3.90
  -4   0  21   -0.33    0.56
  -4   0  20  133.20    7.16
   4   0 -19    0.86    1.72
  -4   0  19    1.46    0.98
  -4   0  18  335.72   15.91
  -4   0  18  326.14   19.39
   4   0 -18  315.55   23.31
  -4   0  17    1.46    1.26
  -4   0  17    0.21    0.72
  -4   0  17    1.23    0.82
  -4   0  16    8.54    2.53
  -4   0  16    7.68    1.57
  -4   0  16    7.90    2.22
  -4   0  15    0.57    1.14
  -4   0  15    2.78    1.61
  -4   0  15    0.55    0.70
  -4   0  15    4.11    1.64
  -4   0  14  183.07    9.93
  -4   0  14  193.19   13.21
  -4   0  14  187.84   13.94
  -4   0  13    0.49    1.13
  -4   0  13    1.36    0.74
  -4   0  12   80.25    7.65
  -4   0  12   79.03    7.45
  -4   0  12   68.48    4.66
  -4   0  11   -0.39    0.90
  -4   0  10 1224.67   54.78
  -4   0   9    0.30    0.86
   4   0  -9   -0.45    1.88
  -4   0   8 1024.85   45.01
   4   0  -8  986.83   46.89
  -4   0   7    0.73    0.69
   4   0  -7    1.47    1.70
   4   0  -6  375.89   20.11
  -4   0   5    0.63    0.26
   4   0  -5    1.26    1.45
   4   0  -4 1391.24   60.83
   4   0  -3    1.35    1.04
   4   0  -2   29.94    3.62
   4   0  -1    0.55    1.04
   4   0   0   27.21    3.55
   4   0   1    1.75    1.26
   4   0   2  263.68   15.01
   4   0   2  258.83   15.72
   4   0   3   -0.18    0.69
   4   0   3    0.81    1.33
   4   0   4  797.74   35.63
   4   0   4  828.03   39.53
   4   0   5    0.87    0.67
   4   0   5    0.50    1.40
   4   0   6  157.35    9.85
   4   0   6  179.33   13.60
   4   0   7    0.62    1.25
   4   0   8  481.12   21.57
   4   0   8  475.49   21.89
   4   0   8  480.80   22.30
   4   0   8  536.63   30.11
   4   0   8  493.20   20.85
   4   0   9    0.16    0.71
   4   0   9    0.96    0.61
   4   0   9    0.09    0.33
   4   0   9    1.55    1.79
   4   0   9    0.19    0.70
   4   0   9    0.42    0.34
   4   0  10  141.84    7.72
   4   0  10  135.62    7.99
   4   0  10  137.36    8.38
   4   0  10  146.42   14.27
   4   0  10  131.18    6.65
   4   0  11    0.58    0.81
   4   0  11   -0.32    0.67
   4   0  11    0.93    1.51
   4   0  11    0.23    0.79
   4   0  12  187.03   10.17
   4   0  12  188.88   10.60
   4   0  12  189.72   17.97
   4   0  12  188.68   11.07
   4   0  13    2.60    1.20
   4   0  13   -0.18    0.75
   4   0  13    1.54    1.26
   4   0  13    1.05    2.42
   4   0  14   18.28    2.36
   4   0  14   17.66    2.82
   4   0  15    0.54    0.88
   4   0  15   -1.08    0.01
   4   0  15    0.53    1.14
   4   0  16   14.48    2.04
   4   0  16   18.17    2.89
   4   0  17    0.30    0.73
   4   0  17   -0.24    1.10
   4   0  18  265.38   12.54
   4   0  18  263.21   13.78
   4   0  19    0.17    0.88
   4   0  20  837.81   35.94
  -4  -1  24   61.91    3.73
  -4  -1  24   56.71    3.78
  -4  -1  23  335.44   15.80
  -4  -1  23  335.25   15.56
  -4   1  23  357.36   15.76
  -4   1  23  326.36   14.74
  -4   1  22  287.77   13.44
  -4   1  22  256.54   12.21
  -4   1  21    0.44    0.52
  -4   1  21    0.75    0.94
  -4   1  20   21.07    2.14
   4  -1 -19   19.80    4.96
  -4   1  19   25.24    4.30
   4  -1 -18   29.93    6.37
  -4   1  18   22.43    3.83
  -4  -1  18   33.06    3.47
  -4  -1  18   27.09    5.06
  -4   1  18   31.57    4.91
  -4   1  17   13.71    3.03
  -4  -1  17   23.14    3.48
  -4  -1  17   22.75    2.84
  -4   1  17   21.72    2.71
  -4   1  17   20.80    4.00
  -4  -1  17   14.75    3.77
  -4   1  17   15.43    3.93
  -4  -1  16  107.78    9.15
  -4   1  16  119.75   11.48
  -4   1  16  129.50   10.31
  -4   1  16  136.74    8.02
  -4  -1  16  126.42    7.84
  -4   1  16  140.46   10.95
  -4   1  15  121.58   10.10
  -4   1  15  136.88   11.75
  -4  -1  15  125.42    7.71
  -4   1  15  123.88    7.62
  -4   1  15  148.82   11.13
  -4   1  14  222.58   15.53
  -4  -1  14  212.64   11.27
  -4   1  14  211.23   11.26
  -4   1  14  249.94   15.28
  -4  -1  13  115.08    6.87
  -4   1  13  117.78    6.89
  -4   1  13  127.19   10.67
  -4   1  13  118.62   10.20
  -4  -1  12  546.06   24.87
  -4   1  12  626.14   30.19
  -4   1  12  558.09   24.93
  -4   1  12  597.40   29.74
  -4   1  11   63.25    6.44
  -4   1  11   51.74    5.92
  -4  -1  11   51.54    5.55
  -4   1  10  211.10   13.56
  -4  -1  10  218.00   12.98
  -4   1   9   87.88    7.17
  -4  -1   9   67.61    5.96
   4  -1  -9   88.39    8.23
  -4   1   8  193.17   11.90
  -4  -1   8  196.06   11.18
   4  -1  -8  184.59   12.77
  -4  -1   7    0.84    0.68
  -4   1   7    2.15    0.59
   4  -1  -7    1.09    1.33
  -4  -1   6    3.87    1.05
  -4   1   6    3.42    0.73
   4  -1  -6    5.66    1.85
  -4   1   5  591.50   25.89
   4  -1  -5  689.08   29.90
   4  -1  -4  139.06    9.42
   4  -1  -3  848.31   38.41
   4  -1  -2  134.55    8.89
   4  -1  -1   23.28    3.17
   4  -1   0    0.54    0.77
   4  -1   1    4.83    1.65
   4  -1   2  456.97   23.29
   4  -1   2  475.32   24.44
   4   1   3 1697.88   70.47
   4  -1   3 1627.14   73.87
   4   1   4 1033.14   45.11
   4  -1   4 1052.02   48.96
   4   1   5  135.32    8.39
   4  -1   5  124.89   10.70
   4   1   6   67.67    5.60
   4  -1   6   62.35    7.58
   4  -1   7   85.39    9.40
   4  -1   8    2.78    2.27
   4  -1   8    1.74    0.85
   4  -1   8    2.21    0.87
   4  -1   8    3.10    0.87
   4   1   8    1.91    0.77
   4   1   8    1.41    0.52
   4  -1   9    4.49    0.95
   4   1   9    1.22    0.53
   4   1   9    1.96    0.57
   4  -1   9    1.54    1.99
   4  -1   9    1.92    0.97
   4  -1   9    1.79    0.89
   4  -1   9    1.50    0.72
   4   1   9    3.35    0.96
   4  -1  10  108.89    6.72
   4   1  10  117.21    6.85
   4  -1  10  119.08    7.22
   4  -1  10  116.37    6.36
   4  -1  10  117.93    7.55
   4  -1  10  134.61   13.47
   4   1  10  117.60    5.97
   4  -1  11  120.17    7.02
   4   1  11  118.66    7.03
   4  -1  11  116.30    7.32
   4  -1  11  105.72    6.30
   4  -1  11  129.29    7.97
   4  -1  11  120.37   13.40
   4   1  11  117.61    6.08
   4  -1  12    7.97    1.84
   4  -1  12   14.74    4.55
   4  -1  12    8.19    1.74
   4  -1  12   10.11    1.68
   4   1  12    8.76    1.71
   4  -1  13   46.03    4.54
   4  -1  13   55.74    9.17
   4  -1  13   43.24    3.77
   4  -1  13   40.80    4.05
   4   1  13   45.95    3.92
   4  -1  14  108.36    7.63
   4  -1  14  100.60   13.04
   4  -1  14  102.37    6.59
   4   1  14  104.91    6.75
   4  -1  15   21.15    5.79
   4  -1  15   19.20    3.02
   4   1  15   18.69    2.45
   4  -1  15   22.89    2.58
   4  -1  16  102.64    7.30
   4   1  16  101.41    6.41
   4  -1  16   97.86    6.19
   4  -1  17   14.42    2.45
   4  -1  17   17.64    2.05
   4   1  17   16.73    2.11
   4  -1  18    0.41    1.13
   4   1  18    1.69    0.82
   4   1  19   18.38    1.76
   4  -1  19   17.26    2.30
   4  -1  20   24.81    2.43
   4  -1  21   81.31    4.63
  -4  -2  24    9.36    1.19
  -4   2  24    8.19    1.18
  -4  -2  24    9.32    1.27
  -4   2  24    9.73    1.35
  -4  -2  23  176.75    9.00
  -4   2  23  178.09    9.21
  -4  -2  23  176.04    8.81
  -4   2  23  170.68    8.90
  -4   2  23  185.14    8.97
  -4  -2  23  170.66    8.03
  -4   2  23  161.22    8.06
  -4   2  22    2.54    1.06
  -4   2  22    1.96    0.63
  -4  -2  22    2.07    0.62
  -4   2  21  212.84   11.40
  -4  -2  21  220.77   10.31
  -4   2  21  212.20   10.37
  -4   2  20    1.59    0.68
  -4  -2  20    3.07    0.83
  -4  -2  19   58.29    4.95
  -4   2  18    3.55    1.76
  -4  -2  18    0.47    0.95
  -4  -2  18    2.38    1.37
  -4  -2  18    0.44    1.08
   4  -2 -18    0.87    1.74
   4   2 -18    3.39    2.59
  -4   2  18    4.11    1.58
  -4  -2  17   28.13    4.39
  -4   2  17   27.13    4.51
  -4  -2  17   21.34    4.42
  -4  -2  17   19.96    2.78
   4  -2 -17   25.95    6.14
   4   2 -17   17.74    4.96
  -4   2  17   22.31    3.94
  -4  -2  16  533.36   26.89
  -4   2  16  535.94   27.37
  -4   2  16  480.93   28.31
  -4  -2  16  504.32   23.01
  -4   2  16  497.70   22.83
  -4  -2  16  493.14   27.83
  -4  -2  16  420.85   24.26
  -4   2  16  460.96   26.35
  -4  -2  15  188.89   15.64
  -4   2  15  238.88   16.71
  -4   2  15  223.18   15.22
  -4  -2  15  236.30   16.21
  -4  -2  15  241.70   15.28
  -4   2  15  241.25   15.59
  -4  -2  15  229.76   12.05
  -4   2  15  227.45   11.95
  -4  -2  14    7.20    1.50
  -4   2  14    8.64    1.59
  -4  -2  14   10.69    2.63
  -4   2  14    7.79    2.45
  -4   2  14    8.60    2.72
  -4   2  14    8.28    2.75
  -4   2  13  105.10    9.73
  -4   2  13   98.33    9.12
  -4  -2  13   95.27    6.03
  -4   2  13   98.87    6.09
  -4   2  12    0.42    0.56
  -4   2  12   -0.44    1.34
  -4   2  12    0.50    0.99
  -4   2  11  852.08   37.64
  -4   2  11  801.90   38.12
  -4   2  11  737.74   32.94
  -4   2  10 1222.50   55.98
  -4   2  10 1238.94   55.28
   4  -2  -9   85.88    8.08
   4   2  -9   76.99    8.01
  -4   2   9   83.39    7.40
  -4  -2   9   90.43    6.46
   4  -2  -8  944.11   42.94
   4   2  -8  952.54   43.33
  -4   2   8  879.50   38.72
  -4  -2   8  905.23   39.79
  -4   2   7  133.99    7.34
  -4  -2   7  126.34    7.72
   4   2  -7  139.36   10.23
   4  -2  -7  153.63   10.36
  -4   2   6    2.61    0.74
  -4  -2   6    2.62    0.80
   4   2  -6    2.12    1.48
   4  -2  -6    1.32    1.38
  -4  -2   5   46.82    3.42
   4  -2  -5   45.67    4.89
   4   2  -5   51.21    5.34
   4  -2  -4  109.97    8.17
   4   2  -4  120.05    8.61
   4  -2  -3   35.67    3.97
   4   2  -3   35.93    4.13
   4   2  -2  228.86   13.60
   4  -2  -2  255.46   13.73
   4  -2  -1  125.82    8.40
   4   2  -1  116.77    8.44
   4   2   0   91.47    7.16
   4  -2   0   89.83    6.86
   4  -2   1  124.33    8.62
   4   2   1  130.50    9.08
   4   2   2    5.63    1.81
   4  -2   2    6.00    1.85
   4   2   3 1128.98   48.11
   4  -2   3 1114.40   47.79
   4  -2   3 1158.10   51.76
   4   2   3 1067.27   51.05
   4  -2   4  247.44   12.86
   4   2   4  249.42   13.18
   4  -2   4  258.30   16.26
   4   2   4  246.57   15.88
   4   2   5  418.95   20.20
   4  -2   5  409.88   19.90
   4  -2   5  435.24   24.05
   4   2   5  387.91   23.22
   4   2   6  106.88    7.49
   4  -2   6  106.22   10.06
   4   2   6  101.52    9.85
   4   2   7  367.98   16.32
   4   2   7  397.55   23.91
   4   2   8  408.99   18.03
   4  -2   8  412.76   19.58
   4   2   8  399.59   19.49
   4  -2   8  431.27   18.09
   4   2   8  419.13   18.18
   4  -2   8  438.67   26.61
   4   2   8  448.62   26.72
   4   2   8  397.74   18.12
   4  -2   8  442.05   18.97
   4   2   8  427.98   19.00
   4  -2   8  428.68   19.29
   4   2   8  425.58   19.23
   4  -2   9    2.74    0.84
   4   2   9    4.62    0.81
   4  -2   9    5.34    1.38
   4  -2   9    5.37    3.07
   4   2   9    1.54    1.79
   4   2   9    3.26    1.18
   4   2   9    5.57    0.93
   4  -2   9    2.76    0.68
   4  -2   9    2.59    0.93
   4   2   9    3.58    1.14
   4  -2   9    3.20    0.95
   4   2   9    3.27    0.95
   4  -2  10  614.66   27.52
   4  -2  10  659.52   28.02
   4   2  10  627.18   28.08
   4  -2  10  653.48   28.53
   4   2  10  631.36   28.48
   4   2  10  619.40   27.00
   4  -2  10  658.83   29.04
   4   2  10  609.56   28.82
   4   2  10  692.43   38.27
   4  -2  11  100.29    5.91
   4  -2  11  114.76    6.46
   4   2  11   90.28    6.15
   4  -2  11   99.46    6.60
   4   2  11  102.31    6.72
   4   2  11   95.95    5.44
   4  -2  11  104.67    7.06
   4   2  11  106.99    7.15
   4  -2  11  104.53   12.32
   4   2  11   99.82   12.10
   4   2  12  165.43    9.08
   4  -2  12  177.69    9.56
   4   2  12  152.77    9.29
   4  -2  12  169.78    8.94
   4  -2  12  166.18    9.86
   4   2  12  150.47    9.66
   4  -2  12  146.36   15.45
   4   2  12  146.62   15.83
   4  -2  12  146.37    8.25
   4  -2  13  349.76   16.71
   4   2  13  368.46   17.12
   4   2  13  345.50   17.40
   4  -2  13  386.89   18.23
   4   2  13  360.46   18.12
   4  -2  13  391.27   27.37
   4   2  13  348.61   26.79
   4  -2  13  315.63   15.98
   4  -2  14  120.16    8.27
   4   2  14  119.66    8.41
   4  -2  14  134.65   14.86
   4   2  14  134.23   15.20
   4   2  14  127.80    7.73
   4  -2  14  122.41    7.35
   4  -2  15  304.06   15.91
   4   2  15  284.15   15.93
   4  -2  15  308.37   24.37
   4   2  15  310.65   24.95
   4   2  15  295.19   14.97
   4  -2  15  310.67   14.70
   4   2  16  184.07   11.34
   4  -2  16  191.80   11.24
   4   2  16  201.38   10.54
   4  -2  16  192.72    9.96
   4  -2  17    6.50    1.75
   4   2  17    6.11    1.41
   4   2  18  275.30   14.17
   4  -2  18  274.43   13.95
   4   2  18  266.62   13.04
   4  -2  19   30.04    2.97
   4   2  19   29.04    3.04
   4   2  19   31.49    2.50
   4  -2  20  154.80    8.07
   4   2  20  152.68    8.15
   4  -2  21   21.77    1.83
   4   2  21   18.46    1.77
  -4   3  24   85.90    5.02
  -4  -3  24  101.62    5.03
  -4  -3  24  102.09    5.20
  -4   3  24   92.58    5.28
  -4  -3  23  216.19    9.91
  -4   3  23  190.06    9.92
  -4   3  23  205.87    9.80
  -4   3  23  187.77    9.69
  -4  -3  23  205.39    9.59
  -4  -3  23  191.34    8.81
  -4   3  23  180.09    8.87
  -4  -3  22   86.63    5.26
  -4   3  22   67.38    5.09
  -4  -3  22   77.04    4.90
  -4   3  22   73.58    5.03
  -4  -3  22   70.79    4.09
  -4   3  22   69.22    4.17
  -4   3  22   72.91    4.96
  -4  -3  21  208.01    9.83
  -4   3  21  201.25    9.95
  -4   3  21  212.93   11.02
  -4  -3  20   10.72    1.41
  -4   3  20    7.86    1.27
  -4  -3  20   12.59    2.19
  -4   3  20   10.89    1.97
  -4  -3  19    2.16    1.12
  -4   3  18  235.32   17.11
   4  -3 -18  255.52   21.02
   4   3 -18  236.16   20.19
  -4  -3  18  318.21   15.27
  -4  -3  18  270.90   17.57
  -4   3  18  281.08   18.25
  -4  -3  18  277.89   18.95
  -4   3  18  308.88   13.48
  -4   3  17  659.78   37.48
   4  -3 -17  736.90   42.52
   4   3 -17  698.04   41.62
  -4  -3  17  774.30   39.33
  -4  -3  17  775.95   34.30
  -4  -3  17  757.43   37.66
  -4   3  17  772.08   38.42
  -4   3  17  793.33   32.70
  -4  -3  16   37.49    5.08
  -4   3  16   45.46    5.86
  -4  -3  16   33.24    5.39
   4  -3 -16   39.52    7.22
   4   3 -16   41.82    7.18
  -4   3  16   43.23    5.76
  -4  -3  16   38.21    3.82
  -4  -3  15   76.92    8.09
  -4   3  15   76.05    7.87
  -4  -3  15   75.16    5.44
  -4   3  15   72.54    8.26
  -4   3  15   87.49    8.21
  -4  -3  15   81.70    7.66
  -4  -3  15   67.34    8.51
  -4   3  15   66.94    5.16
  -4   3  14  295.87   19.33
  -4  -3  14  261.22   13.54
  -4   3  14  249.58   16.89
  -4   3  14  281.49   18.16
  -4  -3  14  275.20   17.57
  -4  -3  14  290.25   16.97
  -4   3  14  309.08   17.78
  -4   3  14  256.29   13.43
  -4   3  13  257.95   16.01
  -4  -3  13  214.33   11.40
  -4   3  13  241.25   16.53
  -4   3  13  220.05   11.41
  -4   3  12  157.48   11.38
  -4   3  12  156.18   12.27
  -4   3  12  145.91    8.07
  -4  -3  12  143.73    8.03
  -4   3  11   13.53    3.20
  -4  -3  11   12.30    1.63
  -4   3  11   12.74    1.69
  -4   3  11   12.72    2.79
   4  -3 -10    2.95    1.97
  -4   3  10    2.39    1.31
  -4   3  10    1.77    1.26
  -4   3   9  198.76   12.79
  -4   3   9  171.65    9.86
   4   3  -9  162.59   12.62
  -4   3   9  187.32   11.40
   4  -3  -9  183.35   12.88
  -4   3   8  183.90   10.22
   4  -3  -8  203.47   13.10
   4   3  -8  197.24   13.30
  -4   3   7   14.43    1.94
   4  -3  -7   11.19    2.75
   4   3  -7   13.45    3.04
  -4   3   6    4.03    1.04
   4  -3  -6    5.96    2.00
   4   3  -6    9.50    2.40
   4  -3  -5 1255.78   49.47
   4   3  -5 1206.50   49.83
   4  -3  -4    1.38    1.19
   4   3  -4   -0.30    0.92
  -4  -3   4    0.40    0.22
   4   3  -3   36.97    4.11
   4  -3  -3   31.93    3.71
  -4  -3   3   26.58    1.56
   4  -3  -2    1.57    0.96
   4   3  -2    0.89    1.03
   4  -3  -1  377.00   18.69
   4   3  -1  347.88   18.87
   4  -3   0  110.27    7.55
   4   3   0   90.21    7.43
   4  -3   1   76.95    6.19
   4   3   1   68.56    6.26
   4  -3   2    4.99    1.13
   4   3   2    3.06    0.98
   4  -3   2    1.18    1.08
   4   3   2    2.71    1.52
   4  -3   3  448.52   23.36
   4   3   3  408.71   22.64
   4  -3   3  417.13   19.69
   4   3   3  426.20   20.09
   4  -3   4   63.09    6.91
   4   3   4   57.81    6.51
   4   3   4   70.93    5.24
   4  -3   4   61.12    4.74
   4  -3   5  276.14   17.49
   4   3   5  260.40   17.07
   4  -3   5  290.01   14.07
   4   3   5  293.26   14.52
   4   3   5  253.99   11.79
   4   3   6  249.61   11.48
   4  -3   6  281.90   17.96
   4   3   6  281.32   17.87
   4   3   7  890.39   38.11
   4  -3   7 1054.28   47.45
   4   3   7  979.99   46.68
   4  -3   8   21.25    2.35
   4   3   8   19.17    2.25
   4  -3   8   23.64    2.23
   4  -3   8   21.34    2.52
   4   3   8   20.15    2.46
   4  -3   8   28.89    5.52
   4   3   8   22.72    4.86
   4   3   8   21.91    1.86
   4   3   8   21.29    1.83
   4   3   8   18.32    1.81
   4  -3   9 1219.94   51.56
   4  -3   9 1311.80   52.38
   4   3   9 1166.23   52.09
   4  -3   9 1248.46   51.75
   4  -3   9 1206.30   50.84
   4   3   9 1236.71   51.06
   4  -3   9 1324.37   52.93
   4   3   9 1161.65   52.52
   4  -3   9 1390.03   62.52
   4   3   9 1295.60   61.89
   4   3   9 1210.75   50.97
   4   3   9 1245.01   51.24
   4  -3  10  223.66   11.13
   4   3  10  235.71   11.63
   4  -3  10  222.66   11.29
   4  -3  10  233.24   11.85
   4   3  10  217.67   11.73
   4  -3  10  238.79   12.34
   4   3  10  219.69   12.15
   4  -3  10  264.87   19.75
   4   3  10  240.88   19.19
   4   3  10  229.66   10.68
   4   3  10  219.18   10.81
   4  -3  11   41.61    3.39
   4   3  11   50.02    3.97
   4  -3  11   43.39    3.88
   4   3  11   43.80    3.93
   4  -3  11   45.48    3.62
   4  -3  11   49.32    4.33
   4   3  11   46.19    4.32
   4   3  11   44.68    7.88
   4  -3  11   60.92    9.08
   4   3  11   42.69    3.11
   4   3  11   42.69    3.23
   4  -3  12    2.40    0.83
   4   3  12    1.82    0.71
   4  -3  12    1.90    2.20
   4   3  12    1.00    2.00
   4  -3  12    1.64    1.18
   4   3  12    1.73    1.14
   4  -3  12    1.73    0.83
   4   3  12   -0.18    0.89
   4   3  12    1.79    0.69
   4  -3  13    6.64    1.28
   4  -3  13    6.54    1.45
   4   3  13    4.91    1.31
   4  -3  13    2.97    2.57
   4   3  13    5.28    3.23
   4   3  13    6.26    1.80
   4  -3  13    6.35    1.82
   4  -3  14    1.89    0.79
   4   3  14    3.48    1.58
   4  -3  14    4.03    2.60
   4   3  14    3.26    2.51
   4  -3  14    4.98    1.58
   4  -3  14    3.57    1.08
   4   3  14    4.24    1.27
   4  -3  15   24.25    3.18
   4   3  15   25.90    3.42
   4  -3  15   28.92    6.38
   4   3  15   21.72    5.69
   4  -3  15   25.28    2.54
   4   3  15   21.60    2.69
   4   3  16  126.83    7.82
   4  -3  16  141.46    8.67
   4   3  16  132.83    8.78
   4   3  17   19.93    2.44
   4  -3  17   19.98    2.79
   4   3  17   22.33    3.02
   4   3  18   58.72    4.12
   4  -3  18   51.76    4.38
   4   3  18   59.13    4.78
   4   3  19   34.38    2.74
   4  -3  19   37.96    3.26
   4   3  19   38.53    3.39
   4   3  20    0.65    0.41
  -4  -4  24   69.99    3.52
  -4   4  24   58.81    3.59
   4   4 -24   57.94    3.18
  -4  -4  24   76.19    3.73
  -4   4  24   62.30    3.75
  -4  -4  23  235.24   10.53
  -4   4  23  211.14   10.67
  -4  -4  23  245.81   10.80
  -4   4  23  204.15   10.81
  -4   4  23  217.25   10.73
  -4  -4  22    7.35    1.34
  -4   4  22    3.37    1.13
  -4   4  22    3.22    1.04
  -4   4  22    4.09    0.78
  -4  -4  22    4.15    0.75
  -4  -4  22    3.65    1.01
  -4   4  22    3.31    1.05
  -4   4  21    3.93    1.18
  -4   4  21    4.72    0.94
  -4  -4  21    3.64    0.79
  -4   4  20    2.08    1.14
  -4   4  20    1.14    0.54
  -4  -4  20    1.02    0.56
  -4   4  20    2.11    0.75
  -4   4  19   68.49    4.40
  -4  -4  19   73.85    4.49
  -4   4  19   72.57    4.66
  -4  -4  19   80.24    5.77
  -4   4  19   71.52    5.41
  -4   4  18   27.17    2.41
  -4   4  18   16.73    3.55
  -4  -4  18   22.19    4.11
  -4  -4  18   24.82    4.08
   4  -4 -18   25.90    5.61
   4   4 -18   24.96    5.41
  -4   4  18   23.66    4.23
  -4  -4  18   23.93    3.01
   4   4 -17  117.81   12.38
  -4  -4  17  112.14   10.52
  -4   4  17   97.63    9.94
   4  -4 -17  121.45   12.71
  -4  -4  17  130.42   10.27
  -4   4  17  113.50   10.24
  -4   4  17  120.83    6.74
  -4  -4  17  134.57    8.11
  -4  -4  16  324.56   15.75
  -4   4  16  278.83   19.00
  -4  -4  16  324.97   19.81
   4  -4 -16  308.23   22.33
   4   4 -16  273.25   21.21
  -4  -4  16  311.27   18.52
  -4   4  16  303.08   18.95
  -4   4  15   61.19    8.29
  -4  -4  15   63.48    5.00
  -4  -4  15   51.74    7.74
  -4   4  15   67.59    5.00
  -4  -4  15   64.59    7.29
  -4   4  15   66.75    7.52
   4  -4 -15   67.99    9.16
   4   4 -15   74.69    9.42
  -4  -4  15   72.91    7.11
  -4   4  15   60.34    6.93
  -4   4  14   31.22    5.70
  -4  -4  14   33.58    3.37
   4  -4 -14   35.81    6.34
   4   4 -14   37.25    6.34
  -4   4  14   28.90    4.81
  -4  -4  14   37.08    5.29
  -4  -4  14   35.20    6.27
  -4   4  14   36.18    3.36
  -4  -4  14   32.72    4.62
  -4   4  14   34.64    4.99
  -4   4  14   36.45    5.43
  -4   4  13   15.44    3.73
  -4   4  13   11.41    1.77
  -4  -4  13    9.70    1.66
   4  -4 -13    9.91    3.44
   4   4 -13    4.70    2.60
  -4   4  13    9.07    2.62
  -4  -4  13   12.03    2.68
  -4   4  13   12.39    2.92
  -4   4  13   11.08    2.92
   4  -4 -12  294.82   19.36
   4   4 -12  314.16   20.01
  -4   4  12  302.30   17.43
  -4  -4  12  261.61   13.48
  -4   4  12  278.52   13.67
  -4   4  12  283.30   18.73
  -4   4  11  273.14   15.59
   4  -4 -11  277.52   17.60
   4   4 -11  250.12   17.36
  -4  -4  11  237.87   12.10
  -4   4  11  244.53   12.27
  -4   4  11  277.48   17.40
  -4   4  10  723.82   32.29
  -4   4  10  794.12   37.97
  -4   4  10  718.01   33.86
  -4   4  10  796.70   35.59
   4  -4 -10  822.01   38.24
   4   4 -10  743.29   38.00
  -4   4   9  738.46   35.80
  -4   4   9  674.82   32.13
   4   4  -9  687.72   35.69
  -4   4   9  760.44   33.52
   4  -4  -9  718.10   35.37
  -4   4   8   14.73    2.25
   4  -4  -8   11.50    2.78
   4   4  -8   17.20    3.51
  -4   4   8   19.06    2.66
  -4   4   7  186.21   10.67
   4   4  -7  199.89   13.20
  -4   4   7  201.25   11.03
   4  -4  -7  194.15   12.59
   4  -4  -6   95.14    7.56
   4   4  -6   81.44    7.48
   4  -4  -5   72.95    6.35
   4   4  -5   72.29    6.70
   4  -4  -4   73.02    6.01
   4   4  -4   67.69    6.14
   4   4  -3   70.55    6.30
   4  -4  -3   77.90    6.15
   4  -4  -2   20.82    2.96
   4   4  -2   18.26    3.09
   4  -4  -1   63.59    5.34
   4   4  -1   50.01    5.16
   4  -4   0  931.13   38.57
   4   4   0  761.85   38.45
   4  -4   1  436.08   20.01
   4   4   1  334.12   19.66
   4  -4   2   64.41    4.44
   4   4   2   69.59    4.85
   4  -4   2   54.50    3.42
   4   4   3   41.75    3.73
   4  -4   3   43.80    3.58
   4   4   3   36.57    2.43
   4   4   4  138.17    8.06
   4  -4   4  127.19    7.51
   4   4   4  112.54    5.98
   4  -4   4  148.41   10.86
   4   4   4  137.80   10.42
   4   4   5   78.96    5.88
   4  -4   5   75.56    5.48
   4  -4   5   82.66    8.19
   4   4   5   77.45    7.80
   4   4   5   69.32    4.04
   4  -4   6   38.99    5.70
   4   4   6   35.76    5.48
   4   4   6   37.95    2.64
   4  -4   7  328.43   20.49
   4   4   7  299.08   19.90
   4   4   7  301.96   13.54
   4   4   7  291.76   13.26
   4   4   8    4.93    0.84
   4  -4   8    2.71    2.07
   4   4   8    2.05    1.58
   4  -4   8    0.51    0.69
   4   4   8    2.06    0.89
   4  -4   8    1.41    0.48
   4   4   8    1.22    0.53
   4   4   8    3.20    0.79
   4  -4   8    2.72    0.79
   4  -4   9    0.76    0.60
   4  -4   9   -0.75    1.73
   4   4   9    0.76    0.88
   4   4   9    0.57    0.70
   4  -4   9    2.07    1.02
   4   4   9    1.24    0.63
   4   4   9    0.85    0.54
   4  -4  10  419.01   19.37
   4  -4  10  454.13   19.54
   4  -4  10  448.86   20.55
   4   4  10  402.92   20.31
   4  -4  10  464.12   28.68
   4   4  10  432.68   28.34
   4   4  10  417.94   18.84
   4   4  10  420.12   19.15
   4  -4  11    2.16    0.85
   4  -4  11    2.55    0.87
   4  -4  11    4.39    2.68
   4   4  11    0.92    1.51
   4  -4  11    1.53    1.13
   4   4  11    0.69    0.84
   4   4  11    2.20    0.76
   4   4  11    3.01    0.79
   4  -4  12  408.54   19.64
   4   4  12  431.42   19.33
   4   4  12  421.04   19.47
   4   4  12  444.12   20.39
   4  -4  12  462.29   19.86
   4  -4  12  449.35   21.14
   4   4  12  416.95   21.10
   4  -4  12  454.94   29.87
   4   4  12  412.99   29.48
   4  -4  13   20.45    2.31
   4   4  13   20.38    2.18
   4  -4  13   25.74    2.51
   4  -4  13   29.09    3.36
   4   4  13   20.70    3.00
   4  -4  13   19.24    5.29
   4   4  13   16.70    5.19
   4   4  13   23.62    2.79
   4  -4  14    3.89    2.25
   4   4  14    2.14    1.75
   4  -4  14    3.36    1.50
   4   4  14    3.44    1.47
   4   4  14    3.12    1.20
   4  -4  14    6.39    1.29
   4  -4  15  186.94   10.25
   4   4  15  161.35   10.10
   4   4  15  174.99    9.50
   4  -4  15  147.88    8.37
   4   4  16  191.84   11.45
   4  -4  16  203.87   11.24
   4   4  16  196.34   10.64
   4  -4  17  307.45   14.90
   4   4  17  276.06   14.97
   4   4  17  289.48   14.28
   4  -4  18    9.70    1.78
   4   4  18    7.28    1.69
   4   4  18    8.45    1.44
   4   4  19   11.88    1.84
   4   4  19   13.51    1.61
   4   4  20   37.85    2.52
   4  -4  20   42.60    2.91
  -4  -5  23   73.42    3.90
  -4   5  23   62.43    3.99
   4   5 -23   65.52    3.58
  -4   5  23   74.31    4.29
  -4  -5  23   70.54    4.01
  -4   5  23   62.14    4.13
  -4  -5  22    1.10    0.71
  -4   5  22    0.76    0.58
  -4  -5  22    0.86    0.56
  -4   5  22    0.41    0.68
  -4  -5  22    0.70    0.37
  -4   5  22    0.45    0.37
  -4   5  22    0.69    0.67
  -4   5  21   84.69    5.39
  -4  -5  21   72.49    4.18
  -4   5  21   77.02    4.43
  -4  -5  21   77.06    5.10
  -4   5  21   71.59    5.34
  -4   5  20   38.53    2.83
  -4  -5  20   38.14    2.73
  -4   5  20   37.99    2.90
  -4   5  20   40.58    3.64
  -4   5  19   13.27    2.15
  -4  -5  19   10.56    1.38
  -4   5  19   13.15    1.65
  -4   5  19   11.29    1.53
  -4  -5  18    1.30    1.18
  -4   5  18    0.21    0.98
  -4   5  18    1.31    0.76
  -4  -5  18    2.04    1.18
  -4  -5  18    1.26    0.84
  -4   5  18    2.46    1.27
   4  -5 -18    3.05    2.16
   4   5 -18    3.69    1.90
  -4   5  18    2.15    1.75
  -4  -5  17    4.14    1.43
  -4   5  17    5.00    1.10
   4  -5 -17    5.41    2.68
   4   5 -17    3.02    2.14
  -4   5  17    5.58    2.14
  -4  -5  17    7.26    2.33
  -4   5  17    6.98    2.16
  -4  -5  17    3.41    1.57
  -4  -5  16   28.39    5.51
  -4  -5  16   29.50    3.29
   4  -5 -16   34.35    6.46
   4   5 -16   24.77    5.46
  -4   5  16   23.00    4.54
  -4  -5  16   29.88    4.82
  -4   5  16   34.83    5.07
  -4  -5  16   25.19    4.13
  -4   5  15  297.25   21.32
  -4  -5  15  305.22   15.31
  -4   5  15  292.26   19.36
   4  -5 -15  328.37   22.05
   4   5 -15  287.68   21.01
  -4  -5  15  313.65   19.09
  -4  -5  15  298.01   21.80
  -4   5  15  287.76   18.39
  -4  -5  15  310.91   18.01
  -4   5  14    1.41    1.41
  -4   5  14    2.81    1.11
  -4  -5  14    3.23    2.08
  -4  -5  14    1.89    1.03
   4  -5 -14    2.78    2.12
  -4   5  14    1.58    1.22
   4   5 -14    2.10    1.99
  -4  -5  14    1.94    1.38
  -4  -5  14    1.58    1.12
  -4   5  14    2.74    1.58
  -4   5  13   61.83    7.95
  -4  -5  13   57.67    4.56
  -4   5  13   62.08    4.67
   4  -5 -13   63.86    8.05
   4   5 -13   54.96    7.62
  -4  -5  13   56.43    6.04
  -4   5  13   63.95    6.92
  -4   5  13   78.51    7.35
  -4   5  12   17.73    4.19
  -4  -5  12   18.01    2.21
  -4   5  12   25.18    2.60
   4  -5 -12   20.08    4.49
   4   5 -12   16.69    4.11
  -4   5  12   17.47    3.35
  -4   5  11  210.05   10.67
  -4  -5  11  184.65   10.28
  -4   5  11  227.63   13.55
   4  -5 -11  235.05   15.60
   4   5 -11  222.30   15.60
  -4   5  11  203.00   15.05
  -4   5  10  829.04   35.61
   4   5 -10  807.13   41.05
   4  -5 -10  935.53   41.49
  -4   5  10  901.66   38.71
  -4   5  10  853.32   41.59
  -4   5  10  796.13   37.53
  -4  -5  10  780.80   35.23
  -4   5   9   99.75    7.46
   4  -5  -9  104.69    9.01
   4   5  -9  109.70    9.55
  -4   5   9  100.43    7.41
   4   5  -8  120.32   10.29
  -4   5   8  138.03    8.69
   4  -5  -8  149.60   10.62
  -4   5   8  135.93    8.83
   4  -5  -7 1203.77   51.96
  -4   5   7 1137.43   49.14
   4   5  -7 1074.81   52.12
  -4   5   7 1140.57   49.87
   4  -5  -6  849.53   37.48
   4   5  -6  731.47   37.34
  -4   5   6  789.15   34.52
   4  -5  -5    7.67    2.01
   4   5  -5    9.87    2.38
  -4   5   5    7.09    1.27
   4  -5  -4  125.44    8.37
   4   5  -4  109.21    8.38
  -4   5   4  110.72    6.18
   4   5  -3  411.99   21.47
  -4   5   3  401.55   18.11
   4  -5  -2  405.92   17.37
   4   5  -2  406.85   20.84
  -4   5   2  381.45   17.04
   4  -5  -1  174.09    8.31
   4  -5  -1  186.92   10.78
   4   5  -1  174.20   11.17
   4  -5   0   44.84    2.92
   4  -5   0   53.35    4.77
   4   5   0   40.84    4.61
   4  -5   1    1.27    0.59
   4   5   1    0.32    0.84
   4  -5   1    2.69    0.71
   4  -5   1    1.08    0.88
   4   5   2  330.91   15.71
   4  -5   2  331.14   15.30
   4  -5   2  306.94   14.20
   4  -5   3  193.23   10.25
   4   5   3  197.04   10.69
   4   5   4  103.46    9.08
   4   5   4  119.16    7.48
   4  -5   4  121.23    7.14
   4   5   4  108.17    5.73
   4   5   5  187.50    9.11
   4  -5   5  223.71   14.55
   4   5   5  191.75   13.68
   4   5   6   19.75    1.85
   4  -5   6   16.77    3.83
   4   5   6   22.56    4.19
   4   5   7  119.62    6.54
   4   5   7  114.10    6.07
   4  -5   7  133.76    7.37
   4   5   7  100.93    6.88
   4  -5   7  149.59   12.24
   4   5   7  127.70   11.57
   4  -5   7  146.85    6.16
   4  -5   8   34.16    2.73
   4   5   8   35.20    2.75
   4  -5   8   35.68    3.28
   4   5   8   32.92    3.18
   4  -5   8   34.74    2.30
   4   5   8   30.57    2.34
   4   5   8   34.41    6.04
   4  -5   8   39.93    6.43
   4  -5   9   18.09    2.35
   4   5   9   14.04    2.13
   4  -5   9   21.95    4.90
   4   5   9   21.05    5.03
   4   5   9   16.62    1.87
   4   5   9   19.55    1.87
   4  -5   9   16.21    1.85
   4  -5  10    5.08    1.09
   4  -5  10    7.96    3.32
   4   5  10    7.48    3.19
   4   5  10    3.76    1.26
   4  -5  10    2.40    1.12
   4   5  10    5.31    1.10
   4   5  10    4.00    0.93
   4  -5  11  103.75    6.90
   4   5  11  100.28    6.98
   4  -5  11  110.88   12.21
   4   5  11   90.55   11.63
   4   5  11  103.45    5.81
   4  -5  11   93.09    6.01
   4   5  11  101.96    6.02
   4  -5  12   28.48    2.77
   4   5  12   32.12    2.70
   4   5  12   27.69    3.02
   4  -5  12   28.64    3.29
   4   5  12   29.28    3.47
   4  -5  12   37.72    7.13
   4   5  12   29.12    6.54
   4   5  12   27.58    2.65
   4   5  13    4.87    1.35
   4  -5  13    9.24    3.70
   4   5  13    7.12    3.11
   4  -5  13    6.20    1.69
   4   5  13    5.56    1.69
   4   5  13    7.26    1.31
   4  -5  13    4.28    1.21
   4   5  14   21.19    2.67
   4   5  14   22.02    3.10
   4  -5  14   25.01    5.62
   4   5  14   23.81    5.92
   4  -5  14   18.11    2.70
   4   5  14   20.72    2.19
   4  -5  14   21.20    2.31
   4   5  15  112.91    7.05
   4  -5  15  100.21    6.12
   4  -5  15  121.06    7.55
   4   5  15  102.36    7.45
   4   5  16  190.12   10.08
   4  -5  16  163.04    8.85
   4   5  16  187.43   10.74
   4   5  17  308.69   14.82
   4  -5  17  317.23   15.15
   4   5  17  284.54   15.25
   4   5  18   56.33    3.96
   4  -5  18   54.54    4.02
   4   5  18   47.13    4.06
   4   5  19  165.36    8.31
   4   5  20   55.04    3.07
   4   5  20   45.57    3.16
   4   6 -23   40.81    1.73
  -4   6  23   47.25    2.50
  -4   6  23    0.48    0.21
  -4   6  23    0.23    0.16
  -4   6  22    2.05    0.71
  -4   6  22    0.76    0.64
   4   6 -22    0.64    0.46
  -4   6  22    1.14    0.71
  -4  -6  22    0.68    0.53
  -4  -6  22    0.77    0.50
  -4   6  22    0.34    0.48
  -4  -6  21   84.58    5.03
  -4   6  21   68.53    5.04
  -4   6  21   80.36    4.36
  -4  -6  21   82.40    4.80
  -4   6  21   68.22    4.87
  -4   6  21   84.65    5.28
  -4  -6  21   76.58    4.11
  -4   6  21   73.16    4.24
  -4   6  20  145.59    7.48
  -4   6  20  145.00    8.38
  -4  -6  20  146.68    7.17
  -4   6  20  147.36    7.40
  -4   6  19   31.06    2.67
  -4   6  19   31.01    3.23
  -4  -6  19   31.17    2.42
  -4   6  19   30.73    2.56
  -4   6  18  251.95   12.08
  -4  -6  18  251.44   11.56
  -4   6  18  237.50   11.73
  -4   6  18  243.31   12.92
   4  -6 -17    6.49    2.89
   4   6 -17    4.26    2.32
  -4   6  17    4.60    2.00
  -4  -6  17    2.44    1.27
  -4  -6  17    6.85    1.93
  -4   6  17    6.19    1.99
  -4   6  16   47.56    7.61
  -4  -6  16   63.50    4.90
  -4  -6  16   50.24    6.28
  -4   6  16   44.14    6.38
   4  -6 -16   53.31    7.85
   4   6 -16   45.75    7.25
  -4  -6  16   52.06    7.68
  -4  -6  16   51.23    5.81
  -4   6  16   44.01    5.87
  -4   6  15   29.46    5.84
  -4  -6  15   30.52    3.27
   4   6 -15   31.03    5.81
   4  -6 -15   23.82    5.30
  -4   6  15   21.65    4.41
  -4  -6  15   28.67    4.63
  -4  -6  15   27.60    5.83
  -4  -6  15   30.42    4.31
  -4   6  15   30.35    4.59
  -4   6  14   27.57    5.40
  -4  -6  14   23.97    2.85
   4  -6 -14   28.67    5.43
   4   6 -14   29.28    5.54
  -4  -6  14   24.95    5.62
  -4   6  14   27.40    4.30
  -4  -6  14   22.22    3.70
  -4  -6  14   24.23    4.16
  -4   6  13  297.93   20.40
  -4  -6  13  262.85   13.83
   4   6 -13  288.01   19.55
  -4   6  13  277.89   17.92
   4  -6 -13  283.73   19.15
  -4   6  13  276.72   13.99
  -4  -6  13  259.91   20.77
  -4  -6  13  280.17   16.23
  -4   6  13  278.59   16.91
  -4   6  12   43.58    6.58
  -4  -6  12   33.42    3.37
  -4   6  12   45.34    3.79
  -4  -6  12   42.52    4.88
  -4   6  12   45.57    5.43
  -4   6  12   38.43    5.36
   4  -6 -12   40.36    6.06
   4   6 -12   39.79    6.09
   4  -6 -11    4.22    2.20
   4   6 -11    1.72    1.62
  -4   6  11    2.20    1.44
  -4   6  11    1.86    0.86
  -4  -6  11    3.22    1.01
  -4   6  11    2.48    1.76
  -4   6  11    2.73    1.31
  -4   6  10   76.81    8.49
  -4   6  10   74.12    6.53
  -4  -6  10   70.41    4.81
  -4   6  10   83.94    6.70
  -4   6  10   68.92    4.95
   4  -6 -10   89.91    8.34
   4   6 -10   72.72    7.93
  -4   6   9   86.54    6.71
   4  -6  -9   97.07    8.41
   4   6  -9   86.67    8.45
  -4   6   9   87.02    5.53
  -4   6   9   83.13    6.97
  -4   6   8    2.10    1.10
  -4   6   8    3.02    1.08
   4  -6  -8    1.98    1.45
   4   6  -8    0.91    1.06
   4  -6  -7  566.36   27.23
   4   6  -7  482.54   27.21
  -4   6   7  545.91   24.62
  -4   6   7  528.52   25.95
   4  -6  -6  728.49   33.85
   4   6  -6  669.80   34.33
  -4   6   6  713.91   31.13
  -4   6   5 1093.33   47.00
   4   6  -5 1057.29   50.17
  -4   6   4  583.14   25.80
   4   6  -4  582.12   29.20
   4  -6  -3  202.28   11.37
   4   6  -3  167.34   11.39
   4   6  -2    6.16    1.84
   4  -6  -2   10.79    2.08
   4  -6  -1  116.94    6.00
   4  -6  -1  129.49    8.08
   4  -6   0  484.81   19.93
   4  -6   0  509.20   22.57
   4  -6   1   25.89    2.45
   4   6   1   23.62    2.57
   4  -6   1   22.62    2.02
   4  -6   2  341.86   16.59
   4   6   2  377.46   17.26
   4  -6   3   59.64    4.35
   4   6   3   59.45    4.64
   4   6   4  145.47    8.46
   4   6   4  132.25    6.84
   4   6   5  244.13   11.15
   4   6   5  245.20   11.43
   4   6   6  186.28    8.98
   4   6   6  188.74    9.28
   4  -6   6  209.57   14.53
   4   6   6  189.72   14.11
   4  -6   7    8.16    2.71
   4   6   7    6.50    2.48
   4  -6   7    6.18    0.82
   4   6   7    7.28    0.93
   4  -6   7    9.30    1.49
   4   6   7    6.99    1.31
   4   6   7    7.62    1.22
   4   6   7    6.33    1.00
   4   6   8  472.24   20.53
   4  -6   8  505.51   21.36
   4   6   8  468.67   27.75
   4   6   9   26.49    2.52
   4   6   9   24.60    2.82
   4  -6   9   35.42    6.05
   4   6   9   27.18    5.54
   4  -6   9   27.53    2.91
   4   6  10   17.01    2.00
   4  -6  10   15.30    2.28
   4   6  10   16.13    2.32
   4  -6  10   19.19    4.81
   4   6  11   63.17    4.55
   4  -6  11   74.54    5.42
   4   6  11   64.32    5.24
   4  -6  11   81.09   10.02
   4   6  11   64.91    9.34
   4  -6  12   16.35    2.09
   4   6  12   13.57    1.85
   4  -6  12   18.82    4.77
   4   6  12   20.54    5.31
   4  -6  12   10.26    2.11
   4   6  12   12.37    2.21
   4  -6  13  125.06    7.74
   4   6  13  119.44    7.86
   4  -6  13  122.02   13.05
   4   6  13  101.74   12.86
   4   6  13  113.84    6.73
   4  -6  13  107.34    6.70
   4   6  13  118.78    7.39
   4  -6  14    1.72    1.41
   4   6  14    1.95    1.59
   4  -6  14    2.12    1.15
   4   6  14    1.92    1.15
   4   6  14    1.39    0.69
   4  -6  14    1.48    0.80
   4   6  14    2.36    1.21
   4  -6  15   46.11    4.08
   4   6  15   40.83    4.09
   4   6  15   41.88    3.22
   4   6  15   45.74    3.95
   4  -6  15   40.36    3.30
   4   6  16   12.05    2.14
   4  -6  16   17.86    2.33
   4   6  16   14.59    2.17
   4  -6  16   11.88    1.52
   4  -6  17    0.92    0.83
   4   6  17    1.10    0.82
   4   6  17    1.27    0.86
   4   6  18    6.06    1.20
   4  -6  19  258.53   10.50
   4   6  19  250.90   10.70
   4   6  20  151.23    7.08
  -4   7  23    4.17    0.75
   4   7 -23    3.09    0.51
  -4   7  22   72.44    4.64
   4   7 -22   77.89    4.08
  -4   7  22   83.05    4.79
  -4   7  21   32.00    2.58
  -4  -7  21    0.11    0.09
  -4  -7  21   42.09    2.47
  -4   7  21   12.54    1.59
  -4   7  21   38.54    2.15
  -4  -7  21   40.19    2.26
  -4   7  21   25.68    2.08
  -4   7  21   34.57    2.68
   4   7 -21   37.09    2.12
  -4  -7  20  122.31    5.92
  -4   7  20  116.01    6.06
  -4  -7  20  137.51    6.96
  -4   7  20   94.30    6.74
  -4   7  20  129.96    7.32
  -4  -7  20  134.47    6.71
  -4   7  20   98.56    6.65
  -4   7  20  134.71    6.59
  -4   7  19  236.54   12.26
  -4  -7  19  242.13   10.79
  -4   7  19  220.06   10.89
  -4   7  19  243.87   11.50
  -4   7  18    1.56    0.97
  -4  -7  18    2.16    0.69
  -4   7  18    1.39    0.62
  -4   7  18    2.99    1.24
  -4  -7  17    0.45    0.53
  -4   7  17    0.21    0.86
  -4  -7  17    0.10    0.35
  -4   7  17    1.70    0.68
  -4  -7  16   36.27    4.49
   4   7 -16   26.53    5.09
  -4   7  16   24.24    4.67
  -4  -7  16   32.67    4.74
  -4  -7  16   26.28    5.48
  -4   7  16   21.24    5.46
  -4  -7  15   28.68    3.97
  -4   7  15   25.89    4.07
  -4  -7  15   25.22    4.31
   4  -7 -15   24.21    4.95
   4   7 -15   26.52    5.19
  -4  -7  15   29.76    6.16
  -4   7  15   28.35    5.79
  -4  -7  14   32.29    4.25
  -4   7  14   24.89    4.06
   4  -7 -14   20.26    4.71
   4   7 -14   29.87    5.42
  -4   7  14   30.26    5.10
  -4  -7  14   32.82    4.85
  -4  -7  14   33.46    6.78
  -4   7  14   29.09    5.86
  -4  -7  13 1034.78   48.63
  -4   7  13 1100.95   49.79
  -4   7  13 1125.98   52.01
   4  -7 -13 1175.49   53.36
   4   7 -13 1015.04   52.48
  -4  -7  13 1067.56   56.74
  -4   7  13 1040.75   54.36
  -4  -7  12  126.88    9.29
  -4   7  12  141.12   10.14
  -4   7  12  116.39   10.41
   4  -7 -12  143.07   11.84
   4   7 -12  120.03   11.38
  -4   7  12  139.39    8.12
  -4  -7  12  122.20   13.45
  -4   7  12  141.21   13.01
  -4   7  11   75.94    6.74
  -4  -7  11   69.01    6.14
  -4   7  11   52.16    7.50
  -4   7  11   57.02    6.13
  -4   7  11   70.61    7.18
   4  -7 -11   71.32    7.71
   4   7 -11   63.27    7.49
  -4   7  11   61.54    4.76
  -4   7  10   -0.65    1.29
  -4   7  10    0.75    0.97
  -4   7  10    1.65    1.26
   4  -7 -10    0.47    0.94
   4   7 -10    0.52    1.60
  -4   7  10    1.76    0.89
  -4   7   9  102.74    8.31
  -4   7   9  104.89    8.43
   4   7  -9   97.37    9.19
   4  -7  -9  116.61    9.40
  -4   7   9  100.69    6.40
   4  -7  -8   91.44    7.99
   4   7  -8   86.27    8.32
  -4   7   8  100.54    7.78
  -4   7   8   90.01    7.61
   4  -7  -7  307.10   16.95
  -4   7   7  290.66   16.52
   4   7  -7  267.30   16.66
   4  -7  -6 1278.02   52.44
   4   7  -6 1059.28   52.28
   4   7  -5   19.86    3.23
   4  -7  -5   23.11    3.23
   4  -7  -4   68.28    5.69
   4   7  -4   59.38    5.79
   4  -7  -4   62.24    3.89
   4  -7  -3   65.87    5.31
   4   7  -3   55.00    5.30
   4  -7  -3   51.94    3.51
   4  -7  -2  134.03    8.05
   4   7  -2   96.10    7.67
   4  -7  -1   92.22    6.29
   4   7  -1   63.15    5.79
   4   7   0   42.33    3.53
   4  -7   0   47.76    3.44
   4  -7   0   48.29    3.28
   4  -7   1  688.87   29.06
   4  -7   1  689.36   29.46
   4   7   1  651.00   29.73
   4   7   2    5.29    1.19
   4  -7   2    5.13    1.10
   4   7   3    6.11    1.30
   4   7   4  761.40   32.00
   4   7   5  301.86   13.79
   4   7   5  297.77   13.49
   4   7   6   97.28    5.65
   4   7   6  101.52    5.45
   4   7   7  209.36   10.25
   4   7   7  224.52   10.02
   4   7   7  193.84   14.94
   4   7   7  184.21   10.29
   4   7   8    1.22    0.54
   4   7   8   -0.63    1.47
   4  -7   8    0.61    1.00
   4   7   8    1.30    0.75
   4   7   8    1.63    0.70
   4   7   9  195.10    9.73
   4  -7   9  207.82   10.58
   4   7   9  174.11   10.26
   4  -7   9  197.89   15.70
   4   7   9  181.86   15.64
   4   7   9  210.03   10.19
   4   7  10   18.41    2.06
   4  -7  10   19.84    2.47
   4   7  10   19.78    2.48
   4  -7  10   24.53    5.12
   4   7  10   18.43    4.41
   4   7  10   18.66    2.18
   4   7  11   33.76    2.97
   4  -7  11   44.06    3.82
   4   7  11   32.14    3.43
   4   7  11   26.43    5.75
   4  -7  11   42.03    6.70
   4   7  11   38.72    3.32
   4  -7  12   62.04    4.53
   4   7  12   62.37    4.47
   4  -7  12   71.91    5.14
   4   7  12   46.09    8.03
   4   7  12   53.13    4.75
   4   7  13  515.08   23.79
   4  -7  13  511.79   23.16
   4   7  13  502.48   23.07
   4   7  13  479.35   23.90
   4   7  13  454.49   31.42
   4   7  14   99.90    6.52
   4  -7  14   92.56    5.85
   4   7  14   97.15    5.86
   4  -7  14  102.21    6.55
   4   7  14   90.28    6.60
   4   7  15  166.09    9.46
   4  -7  15  153.60    8.61
   4   7  15  166.42    9.67
   4   7  16    5.53    1.39
   4  -7  16    5.86    1.08
   4  -7  16    6.98    1.38
   4   7  16    6.13    1.45
   4   7  17    0.76    0.76
   4   7  18   94.48    4.11
   4   7  18   -0.12    0.00
   4   7  19   20.79    1.92
   4   8 -22   14.28    1.23
  -4   8  22   14.70    1.58
  -4   8  21   31.34    2.24
  -4   8  21   26.20    2.44
   4   8 -21   26.56    2.04
  -4   8  21   30.22    2.62
   4   8 -20  484.14    7.71
  -4   8  20  492.26   10.23
  -4   8  19   59.43    3.64
  -4   8  19   48.80    3.26
   4   8 -19   65.84    3.16
  -4   8  19   67.72    4.13
  -4   8  19   76.64    3.73
  -4   8  19   46.27    3.04
  -4  -8  18   57.92    3.43
  -4   8  18   58.73    4.21
  -4   8  18   61.85    4.76
  -4  -8  17    0.91    0.48
  -4   8  17    1.10    0.77
  -4   8  17    0.20    0.75
  -4  -8  16    2.95    0.71
  -4  -8  16    4.33    1.58
  -4   8  16    2.75    1.13
  -4  -8  16    1.67    1.37
  -4   8  16    4.17    2.16
  -4  -8  15  194.27   14.01
  -4   8  15  235.68   16.32
  -4  -8  15  227.11   19.05
  -4   8  15  231.68   18.61
  -4  -8  14  345.66   20.14
  -4   8  14  352.10   21.66
   4   8 -14  303.16   21.04
  -4  -8  14  354.66   18.78
  -4   8  14  371.03   24.88
  -4  -8  14  355.55   25.83
   4   8 -13   25.05    4.84
  -4   8  13   33.77    5.19
  -4  -8  13   25.02    3.59
  -4   8  13   31.13    6.08
  -4  -8  13   39.15    7.40
  -4   8  12  182.28   13.05
   4   8 -12  160.30   12.98
  -4  -8  12  158.01   10.46
  -4   8  12  185.88   15.63
  -4   8  12  160.02    9.46
  -4  -8  12  161.85   16.16
  -4   8  11   69.73    7.27
   4   8 -11   61.30    7.26
   4  -8 -11   71.62    7.57
  -4  -8  11   62.45    5.73
  -4   8  11   67.12    8.81
  -4   8  11   69.09    7.03
  -4   8  11   69.89    5.26
  -4  -8  11   72.82   10.07
  -4   8  10   13.83    3.05
   4  -8 -10   13.88    3.09
   4   8 -10    8.98    2.68
  -4  -8  10    7.05    1.83
  -4   8  10   14.19    3.78
  -4   8  10   13.26    2.87
  -4   8  10   13.56    2.06
   4  -8  -9    5.33    0.93
  -4   8   9    4.17    1.60
  -4   8   9    6.60    1.72
  -4   8   9    2.41    0.97
  -4   8   9    4.18    1.65
   4  -8  -9    6.63    2.04
   4   8  -9    5.15    1.96
   4   8  -9    2.96    0.87
   4   8  -8  299.59   13.97
  -4   8   8  326.43   17.46
  -4   8   8  320.23   18.13
   4  -8  -8  308.23   17.33
   4   8  -8  277.54   17.38
   4   8  -7    6.82    1.13
  -4   8   7    8.43    2.24
   4  -8  -7    6.20    1.75
   4   8  -7    7.35    2.05
  -4   8   7    6.15    1.80
  -4   8   6  140.45    9.17
   4   8  -6  119.53    9.31
   4  -8  -6  148.09    9.58
   4  -8  -6  140.18    7.30
  -4   8   5    9.77    1.96
   4  -8  -5   11.66    2.24
   4   8  -5    9.98    2.23
   4  -8  -5   11.91    1.55
   4  -8  -4    0.24    0.84
   4  -8  -4    1.91    0.75
   4   8  -4    1.39    0.91
  -4   8   4    0.43    0.61
   4  -8  -3    2.23    0.97
   4   8  -3    3.04    1.18
   4  -8  -3    2.15    0.80
  -4   8   3    5.31    1.24
  -4   8   2  293.06   13.79
   4  -8  -2  319.21   13.23
   4  -8  -1  144.74    7.51
   4   8  -1  143.20    7.78
  -4   8   1  152.33    7.94
   4   8   0    6.93    1.19
   4  -8   0   11.80    1.43
   4   8   1  102.92    5.47
   4   8   1  101.72    6.04
   4  -8   1  103.93    5.87
   4   8   2  215.53    9.88
   4   8   2  210.76   10.01
   4   8   3   19.87    1.75
   4   8   4  627.47   27.49
   4   8   4  665.96   27.45
   4   8   5    3.18    0.74
   4   8   5    1.13    0.51
   4   8   6  590.78   25.22
   4   8   6  576.48   25.55
   4   8   7   14.37    1.62
   4   8   7   11.51    1.64
   4   8   8  135.94    7.17
   4   8   8  144.30    7.61
   4   8   8  122.40    7.40
   4   8   9   12.12    1.75
   4   8   9    9.10    1.43
   4   8   9    9.34    1.61
   4   8  10  235.18   11.23
   4   8  10  220.53   10.73
   4   8  11   77.51    5.23
   4   8  11   80.95    5.04
   4   8  11   69.87    5.26
   4   8  12  509.46   22.91
   4   8  12  536.05   22.72
   4   8  12  461.10   23.10
   4   8  13   72.94    5.58
   4   8  13   87.05    5.43
   4  -8  13   82.70    5.39
   4   8  14    3.45    1.16
   4  -8  14    4.05    1.14
   4  -8  15    1.53    0.87
   4   8  15    2.54    1.15
   4  -8  16   22.77    2.15
   4   8  16   29.54    2.88
   4   8  17    6.14    1.29
   4   8  18   69.78    4.40
   4   8  19    0.41    0.45
   4   9 -22   21.14    1.43
  -4   9  22   18.88    1.68
   4   9 -21    1.70    0.55
  -4   9  21    2.72    0.73
  -4   9  21    1.34    0.65
  -4   9  21    2.40    0.62
   4   9 -20  227.22   10.43
  -4   9  20  232.71   11.34
  -4   9  20  208.25   10.98
  -4   9  20  245.03   10.89
   4   9 -19  109.66    5.86
  -4   9  19  109.83    6.71
  -4   9  19  104.53    6.35
  -4   9  19  117.26    6.34
   4   9 -18  228.08   10.80
  -4   9  18  230.84   11.90
  -4   9  18  204.23   11.26
  -4   9  18  243.43   11.44
  -4   9  17    2.84    1.02
  -4   9  17    3.19    1.03
  -4   9  17    0.80    0.87
   4  -9 -17    2.32    0.82
   4   9 -17    2.11    0.81
  -4   9  16   33.42    3.53
   4  -9 -16   33.85    2.97
   4   9 -16   36.08    2.97
   4   9 -15   10.62    1.57
  -4  -9  15    5.48    2.61
   4   9 -14  403.37   18.12
  -4  -9  14  384.52   21.92
  -4   9  14  382.57   23.57
  -4  -9  14  393.97   28.14
   4   9 -13  685.03   29.69
  -4   9  13  665.40   35.30
  -4  -9  13  704.95   41.56
   4   9 -12   71.81    4.62
  -4  -9  12   68.31   10.35
  -4   9  12   62.37    7.23
  -4   9  11   49.77    6.07
   4   9 -11   43.93    3.40
  -4   9  11   43.47    4.12
  -4  -9  11   38.98    7.50
  -4   9  11   44.17    5.63
  -4   9  10    4.26    1.79
  -4   9  10    5.79    2.10
   4   9 -10    4.98    1.06
  -4   9  10    8.07    1.71
   4   9 -10    5.29    0.85
  -4   9   9   26.79    4.00
  -4   9   9   22.77    4.08
   4   9  -9   21.77    2.20
  -4   9   9   20.50    2.68
   4   9  -9   20.82    1.74
  -4   9   8  174.73    8.63
  -4   9   8  164.51   11.38
  -4   9   8  184.19   12.95
   4   9  -8  157.06    8.07
   4  -9  -8  190.06    9.13
   4   9  -8  188.46    8.94
  -4   9   7  345.87   15.19
  -4   9   7  352.85   18.37
  -4   9   7  337.21   20.03
   4   9  -7  314.77   14.70
   4  -9  -7  368.02   15.77
   4   9  -7  332.87   15.35
   4   9  -6  486.82   22.25
  -4   9   6  506.61   24.91
   4  -9  -6  572.45   23.09
   4   9  -6  467.32   21.71
   4  -9  -6  547.20   22.79
  -4   9   6  533.91   22.10
  -4   9   5  411.77   20.38
   4  -9  -5  440.52   18.88
   4   9  -5  402.02   17.75
   4  -9  -5  432.65   18.64
   4   9  -5  385.16   18.06
  -4   9   4    1.56    0.90
   4  -9  -4    2.03    0.84
   4   9  -4    1.67    0.62
   4   9  -4    1.72    0.63
   4  -9  -4    1.78    0.75
  -4   9   3   40.71    3.68
   4  -9  -3   38.24    3.15
   4  -9  -3   42.99    3.22
   4   9  -3   38.01    2.62
  -4   9   2  272.79   13.80
   4  -9  -2  270.49   13.38
   4   9  -2  283.45   12.69
   4  -9  -2  298.74   13.46
   4   9  -1   37.69    2.65
   4  -9  -1   37.70    3.07
   4   9   0  209.08    9.57
   4   9   0  199.75    9.64
   4   9   1   36.17    2.57
   4   9   1   37.00    2.54
   4   9   1   33.90    2.58
   4   9   2   13.04    1.47
   4   9   2    9.52    1.21
   4   9   2   11.04    1.30
   4   9   3   88.59    4.90
   4   9   3   87.80    4.88
   4   9   4    1.13    0.59
   4   9   4    0.96    0.51
   4   9   5   52.48    3.47
   4   9   5   58.69    3.67
   4   9   6  458.62   20.22
   4   9   6  467.37   20.43
   4   9   7  420.48   18.83
   4   9   8  104.81    5.87
   4   9   8   94.05    6.05
   4   9   9   79.77    4.99
   4   9   9   76.91    5.25
   4   9  10   77.87    4.90
   4   9  10   70.62    5.04
   4   9  11  208.78   10.57
   4   9  11  206.89   10.87
   4   9  12   86.51    5.48
   4  -9  13  266.87   13.37
   4   9  13  285.77   14.14
   4  -9  14    6.82    1.42
   4  -9  15  216.72    6.07
   4  -9  15    0.51    0.26
   4  -9  16   31.57    2.49
   4  -9  17    0.39    0.19
   4   9  17   50.34    3.10
   4   9  18  137.49    7.08
   4   9  19   28.01    2.02
   4  10 -21   74.96    3.80
  -4  10  21   77.41    4.37
   4  10 -20   61.30    3.45
  -4  10  20   55.01    3.96
  -4  10  20   61.25    3.91
  -4  10  20   67.90    3.88
   4  10 -19  123.97    6.37
  -4  10  19  135.65    7.38
  -4  10  19  119.63    6.84
  -4  10  19  135.60    6.99
   4  10 -18  100.33    5.35
  -4  10  18   98.63    6.22
  -4  10  18   96.41    5.81
  -4  10  18   87.85    5.64
  -4  10  17    0.95    0.88
  -4  10  17    0.29    0.51
  -4  10  17    1.08    0.80
   4  10 -17    0.65    0.62
  -4  10  16    2.44    0.94
   4 -10 -16    3.13    0.92
   4  10 -16    2.47    0.90
  -4  10  16    0.83    0.96
  -4  10  15  180.89    9.99
  -4  10  15  186.69   10.89
   4  10 -15  204.51    9.87
   4 -10 -15  200.67    9.96
  -4  10  14   10.30    1.71
   4 -10 -14   13.72    1.84
  -4 -10  14   15.43    4.48
   4  10 -14   14.45    1.82
  -4  10  13   68.74    4.85
  -4  10  13   72.27    7.85
  -4  10  13   51.01    8.66
   4 -10 -13   79.72    5.01
  -4 -10  13   73.95   10.87
   4  10 -13   81.33    4.93
  -4  10  12  190.02   10.03
  -4  10  12  196.65   14.12
  -4  10  12  209.82   17.83
   4 -10 -12  199.63   10.13
  -4 -10  12  207.42   18.90
   4  10 -12  197.24    9.95
  -4  10  11    2.32    1.52
  -4  10  11    0.85    1.39
  -4  10  11    2.15    1.52
   4 -10 -11    0.29    0.75
  -4  10  11    0.14    0.51
   4  10 -11    3.67    0.96
   4  10 -10   33.22    2.40
  -4  10  10   37.47    3.01
  -4  10  10   42.06    5.26
  -4  10  10   29.30    6.21
  -4  10  10   35.45    5.35
   4 -10 -10   38.98    3.20
  -4  10  10   36.41    3.79
   4  10 -10   36.65    3.00
   4  10  -9   10.93    1.22
  -4  10   9   11.00    1.52
  -4  10   9    9.42    2.44
  -4  10   9   12.26    4.03
  -4  10   9   11.18    2.98
   4 -10  -9   12.06    1.73
  -4  10   9   13.70    2.25
   4  10  -9   10.13    1.52
  -4  10   8    6.34    1.10
   4 -10  -8    2.28    0.88
  -4  10   8    3.57    1.49
  -4  10   8    2.63    1.62
   4  10  -8    5.67    1.11
   4  10  -8    3.66    0.74
   4  10  -7   62.75    3.64
  -4  10   7   59.46    3.89
  -4  10   7   60.96    5.86
  -4  10   7   62.41    3.70
  -4  10   7   56.06    6.87
   4 -10  -7   64.00    4.38
  -4 -10   7   63.58    9.12
   4  10  -7   64.78    4.20
   4 -10  -6  550.00   22.55
  -4  10   6  466.51   24.06
  -4  10   6  496.76   27.46
   4 -10  -6  514.63   22.19
   4  10  -6  495.07   21.74
   4  10  -6  460.82   21.05
  -4  10   5  271.08   15.73
   4 -10  -5  319.82   14.70
   4 -10  -5  327.30   14.61
   4  10  -5  307.82   14.05
   4  10  -5  292.52   13.52
   4  10  -4    0.17    0.40
  -4  10   4    1.61    0.88
   4  10  -4    2.27    0.74
   4 -10  -4    1.28    0.79
   4 -10  -4    0.45    0.62
   4 -10  -3   70.00    4.56
   4  10  -3   65.67    3.85
   4  10  -3   65.76    4.07
   4 -10  -3   59.26    4.39
   4  10  -2   56.66    3.73
   4  10  -2   55.89    3.59
   4 -10  -2   59.97    4.29
   4 -10  -2   70.38    4.45
   4  10  -1   91.85    5.20
   4  10  -1   91.22    5.11
   4 -10  -1   99.00    5.83
   4  10   0 1003.25   42.88
   4  10   0 1056.75   43.21
   4  10   0 1042.18   43.15
  -4 -10   0 1038.46   50.10
   4  10   1    3.54    0.79
   4  10   1    1.80    0.57
  -4 -10  -1    1.03    1.46
   4  10   1    4.32    0.97
   4  10   2  258.60   11.94
   4  10   2  263.25   12.16
   4  10   3    1.05    0.56
   4  10   3    1.24    0.54
   4  10   4    7.09    1.13
   4  10   4    6.32    1.05
   4  10   5  146.27    7.44
   4  10   5  140.70    7.36
   4  10   6   81.08    4.88
   4  10   6   81.53    4.81
   4  10   7   65.94    4.29
   4  10   8  288.42   13.63
   4  10   9    1.49    0.75
   4  10  10   43.53    3.45
   4  10  11   76.88    5.00
   4  10  12    7.06    1.61
   4  10  13   56.50    4.56
   4 -10  13   60.69    4.29
   4  10  14  145.87    8.37
   4 -10  14  142.92    7.75
   4  10  15    9.77    1.63
   4 -10  15    5.24    1.12
   4 -10  16   68.98    4.04
   4 -10  17    0.45    0.18
   4  10  18  120.63    6.16
   4  11 -21   65.26    3.20
  -4  11  20   26.79    2.03
   4  11 -20   22.40    1.64
  -4  11  20   22.46    2.05
   4  11 -19    0.48    0.49
  -4  11  19    0.72    0.50
  -4  11  19    0.91    0.60
  -4  11  19    0.85    0.59
   4  11 -18   58.68    3.55
  -4  11  18   56.78    4.26
  -4  11  18   63.43    4.12
  -4  11  18   56.44    3.86
  -4  11  17    1.42    0.96
  -4  11  17    0.65    0.62
  -4  11  17    0.59    0.70
   4  11 -17    0.58    0.54
  -4  11  16    1.78    1.02
  -4  11  16    1.52    0.73
   4  11 -16    1.29    0.73
  -4  11  16    3.59    1.12
  -4  11  15   29.90    2.82
  -4  11  15   30.07    3.35
   4  11 -15   31.33    2.68
   4 -11 -15   33.24    2.79
  -4  11  14    1.59    1.15
  -4  11  14    4.82    1.15
   4 -11 -14    1.68    0.85
   4  11 -14    4.43    1.10
  -4  11  13   59.54    4.28
   4 -11 -13   60.98    4.30
   4  11 -13   64.81    4.25
  -4 -11  13   46.67    8.70
  -4  11  13   56.51    8.76
  -4 -11  12    1.02    1.18
  -4  11  12    6.28    2.94
  -4  11  12    5.59    1.18
   4 -11 -12    3.27    1.04
   4  11 -12    5.73    1.19
  -4  11  11  227.65   16.46
  -4  11  11  215.29   19.03
   4 -11 -11  238.08   11.76
  -4  11  11  226.64   11.51
   4  11 -11  243.36   11.57
  -4  11  10   58.62    4.06
  -4  11  10   57.52    6.34
  -4  11  10   57.66    8.88
  -4  11  10   48.12    6.70
   4 -11 -10   62.62    4.35
  -4  11  10   52.86    4.92
  -4 -11  10   51.59    8.89
   4  11 -10   59.19    4.07
   4  11  -9   31.11    2.33
  -4  11   9   34.19    2.86
  -4  11   9   35.82    4.73
  -4  11   9   35.94    6.93
  -4  11   9   36.46    5.73
   4 -11  -9   38.76    3.24
  -4  11   9   34.65    3.79
  -4 -11   9   36.60    7.35
   4  11  -9   37.81    3.02
   4  11  -8  224.82   10.61
  -4  11   8  234.99   11.28
  -4  11   8  232.93   14.31
  -4  11   8  242.61   16.86
   4 -11  -8  238.33   11.78
  -4 -11   8  236.61   20.18
   4  11  -8  240.18   11.47
   4  11  -7  687.18   30.38
  -4  11   7  740.47   30.98
  -4  11   7  676.68   33.96
  -4  11   7  725.93   30.66
  -4  11   7  761.06   38.16
   4  11  -7  744.63   31.34
   4 -11  -7  750.80   31.71
  -4 -11   7  809.22   43.29
   4  11  -6    8.11    1.09
   4 -11  -6   10.06    1.66
  -4  11   6    6.83    1.85
  -4  11   6    7.05    2.56
  -4  11   6    8.50    1.16
   4  11  -6   10.14    1.46
  -4 -11   6    5.22    2.86
   4  11  -5  330.34   15.27
  -4  11   5  302.55   17.47
  -4 -11   5  368.36   24.83
   4 -11  -5  364.72   16.50
   4  11  -5  351.44   15.96
   4 -11  -5  386.41   16.77
   4 -11  -4   16.73    2.11
   4  11  -4   16.87    1.65
   4 -11  -4   22.07    2.34
   4  11  -4   14.35    1.75
  -4 -11   4   17.02    4.43
   4 -11  -3  213.91   10.72
   4 -11  -3  224.56   10.69
   4  11  -3  187.47    9.50
   4  11  -3  200.67    9.98
  -4 -11   3  205.59   16.57
   4 -11  -2   32.37    3.00
   4  11  -2   31.80    2.27
   4 -11  -2   30.52    2.95
   4  11  -2   30.40    2.38
  -4 -11   2   30.57    5.57
   4  11  -2   28.88    2.52
   4  11  -1  390.73   17.43
   4  11  -1  403.58   17.96
  -4 -11   1  408.43   24.88
   4  11  -1  407.89   17.75
   4  11   0  135.33    7.12
  -4 -11   0  125.68   11.58
   4  11   0  135.14    6.73
   4  11   1  148.97    7.47
   4  11   1  156.38    7.91
   4  11   2   42.46    2.94
   4  11   2   43.08    3.18
   4  11   3   25.12    2.15
   4  11   3   24.39    2.27
   4  11   4    7.27    1.20
   4  11   4    5.46    1.02
   4  11   5  207.09    9.94
   4  11   5  199.74    9.96
   4  11   6    6.45    1.15
   4  11   6    5.84    1.10
   4  11   7  147.36    7.79
   4  11   8    6.35    1.22
   4  11   9   42.61    3.32
   4  11  10   26.86    2.55
   4  11  11   64.95    4.27
   4  11  11   53.54    4.46
   4  11  12   23.85    2.74
   4 -11  12   23.83    2.53
   4  11  13   25.21    2.76
   4 -11  13   21.15    2.29
   4  11  14    7.22    1.50
   4 -11  14   11.27    1.54
   4  11  15  151.00    5.53
   4 -11  15  139.70    4.45
   4 -11  16   47.27    3.11
   4  11  16   64.48    3.99
   4  11  17  366.27   16.27
  -4  12  20    9.32    1.06
  -4  12  20    7.67    0.99
   4  12 -20    7.77    0.79
   4  12 -19  299.29   13.04
  -4  12  19  272.42   13.68
   4  12 -18    2.26    0.66
  -4  12  18    2.40    0.68
  -4  12  18    1.60    0.83
  -4  12  18    1.08    0.69
  -4  12  17   81.91    5.03
   4  12 -17   74.58    4.30
  -4  12  17   73.80    4.57
  -4  12  17   80.08    5.23
  -4  12  16   73.64    5.00
  -4  12  16   75.35    5.32
  -4  12  16   67.50    4.52
   4  12 -16   79.04    4.44
  -4  12  15  106.38    7.12
  -4  12  15  110.89    6.36
   4  12 -15  117.41    6.17
   4 -12 -14   15.21    1.86
   4  12 -14   15.20    1.76
  -4  12  14   11.98    1.65
  -4  12  14   12.81    2.19
   4  12 -13   13.18    1.67
  -4  12  13   11.00    1.63
   4 -12 -13   11.26    1.69
   4  12 -12  215.04   10.32
   4 -12 -12  206.98   10.49
  -4  12  12  198.76   10.28
  -4  12  11    9.11    3.51
  -4  12  11   11.56    3.09
   4  12 -11    8.93    1.45
   4 -12 -11    8.71    1.54
  -4  12  11    9.96    1.50
   4 -12 -10  167.47    8.91
  -4  12  10  166.81   15.67
  -4  12  10  161.85   13.48
   4  12 -10  156.04    8.49
  -4 -12  10  177.37   17.17
  -4  12  10  163.33    8.55
   4 -12  -9  384.15   17.91
  -4  12   9  367.59   26.49
  -4  12   9  367.71   23.64
   4  12  -9  390.36   17.60
  -4  12   9  378.58   17.44
  -4 -12   9  364.08   27.41
  -4  12   9  393.13   19.46
  -4 -12   8    2.91    2.51
   4  12  -8    5.23    1.16
  -4  12   8    6.33    2.96
  -4  12   8    8.30    2.86
  -4  12   8    3.66    0.96
   4 -12  -8    3.53    1.15
   4  12  -8    3.55    0.76
   4 -12  -7  189.97    9.64
  -4  12   7  171.87    8.63
  -4  12   7  170.32   14.23
   4  12  -7  179.34    9.18
  -4 -12   7  168.91   16.46
   4  12  -7  174.97    8.42
   4 -12  -6   92.86    5.61
   4 -12  -6   79.98    5.27
  -4  12   6   76.69    4.46
  -4  12   6   78.63    8.96
   4  12  -6   76.17    4.89
  -4 -12   6   71.32    9.92
   4  12  -6   68.45    4.21
   4 -12  -5   34.19    3.12
   4 -12  -5   26.40    2.80
  -4  12   5   26.31    5.14
  -4  12   5   25.72    2.19
   4  12  -5   25.57    2.49
  -4 -12   5   32.96    6.49
   4  12  -5   25.96    2.14
   4 -12  -4  112.16    6.84
   4  12  -4  113.44    5.94
   4  12  -4  110.16    6.43
  -4 -12   4  115.65   12.30
   4 -12  -4  117.95    7.01
   4  12  -3    0.75    0.40
   4 -12  -3    1.37    0.88
   4  12  -3    0.13    0.64
   4  12  -3    0.10    0.53
  -4 -12   3    2.25    1.94
   4 -12  -3    0.49    0.73
   4  12  -2   19.30    1.70
   4 -12  -2   19.08    2.36
   4  12  -2   22.56    2.00
  -4 -12   2   16.13    4.21
   4  12  -2   21.85    2.18
   4 -12  -1  136.26    7.87
   4  12  -1  131.48    7.21
  -4 -12   1  126.72   11.99
   4  12  -1  132.60    6.59
   4  12   0  648.40   28.07
   4  12   0  689.64   28.91
   4  12   1  385.96   17.04
   4  12   1  389.59   17.68
   4  12   2  165.06    8.11
   4  12   2  166.26    8.61
   4  12   3    1.54    0.70
   4  12   3    1.59    0.59
   4  12   4   86.59    5.05
   4  12   4   93.47    5.43
   4  12   5   50.01    3.47
   4  12   5   53.28    3.71
   4  12   6  136.19    7.06
   4  12   6  126.47    7.08
   4  12   7  467.94   20.79
   4  12   8    6.39    1.19
   4  12   9    9.36    1.47
   4  12   9   10.89    1.74
   4  12  10  194.03    9.52
   4  12  10  176.17    9.91
   4  12  11  155.59    8.73
   4  12  12    9.35    1.65
   4 -12  13    4.21    1.11
   4  12  13    5.40    1.27
   4 -12  14    2.98    0.85
   4 -12  14    2.41    0.76
   4  12  14    2.38    0.92
   4 -12  15   14.32    1.40
   4  12  15   15.11    1.68
   4  12  16  102.68    5.28
   4 -12  16   87.11    4.62
  -4  13  19   63.49    3.80
   4  13 -19   65.48    3.38
  -4  13  18  352.77   14.96
  -4  13  18  318.41   14.99
   4  13 -18  325.63   14.22
  -4  13  17   61.05    3.88
  -4  13  17   55.55    3.97
  -4  13  17   51.25    3.36
   4  13 -17   56.32    3.26
  -4  13  16   46.87    3.23
   4  13 -16   46.46    3.07
  -4  13  15    3.69    1.25
  -4  13  15    3.17    0.81
   4  13 -15    4.22    0.91
  -4  13  14  178.54   10.18
  -4  13  14  175.99    9.01
   4  13 -14  184.67    8.90
   4 -13 -13  433.21   19.00
  -4  13  13  424.56   20.46
  -4  13  13  395.99   18.80
   4  13 -13  432.44   18.80
   4  13 -12   58.71    3.83
   4 -13 -12   50.08    3.79
  -4  13  12   49.46    3.66
   4 -13 -11   12.04    1.73
  -4  13  11   16.10    4.41
  -4  13  11   12.96    3.30
   4  13 -11   13.23    1.70
  -4  13  11   11.44    1.59
  -4 -13  11   19.32    5.01
  -4  13  10    2.72    1.82
  -4  13  10    4.50    2.10
   4  13 -10    1.81    0.89
   4 -13 -10    2.27    0.99
  -4  13  10    2.62    0.79
  -4 -13  10    0.98    1.60
  -4 -13   9    0.98    1.60
   4  13  -9    0.93    0.69
  -4  13   9    1.98    1.32
   4 -13  -9    1.60    0.73
  -4  13   9    0.97    0.61
   4 -13  -9    1.09    0.81
  -4 -13   8  268.35   22.15
   4 -13  -8  280.65   13.60
  -4  13   8  237.56   20.56
  -4  13   8  258.18   19.07
   4  13  -8  281.71   13.26
  -4 -13   7   26.01    6.11
   4 -13  -7   21.32    2.45
   4  13  -7   17.29    1.65
  -4  13   7   24.31    4.99
   4  13  -7   18.83    2.13
   4 -13  -6   20.16    2.36
  -4 -13   6   16.08    4.54
   4 -13  -6   14.89    2.07
   4  13  -6   14.49    1.51
  -4  13   6   16.90    4.10
  -4  13   6   15.99    1.68
   4  13  -6   15.40    1.91
   4 -13  -5  350.30   15.46
  -4 -13   5  286.73   22.18
   4 -13  -5  324.22   15.11
   4  13  -5  316.72   14.63
   4  13  -5  285.09   13.71
  -4  13   5  300.22   13.94
  -4  13   5  303.63   21.01
  -4 -13   4   -0.81    1.86
  -4  13   4    0.80    0.53
   4  13  -4    3.25    1.02
   4 -13  -4    1.77    0.98
   4 -13  -3    8.53    1.63
   4  13  -3    8.17    1.39
  -4  13   3    9.82    1.27
  -4 -13   2   14.87    3.90
   4 -13  -2   20.20    2.42
   4  13  -2   17.50    2.05
   4  13  -1   28.58    2.17
   4 -13  -1   29.56    3.04
   4  13  -1   34.24    2.90
   4  13   0  369.12   16.66
   4 -13   0  384.36   18.27
   4  13   0  404.70   17.73
   4  13   1    6.48    1.26
   4  13   1    5.31    0.90
   4  13   2   24.07    2.03
   4  13   2   24.32    2.43
   4  13   3  117.68    6.32
   4  13   3  129.31    6.98
   4  13   4   26.64    2.26
   4  13   4   28.19    2.58
   4  13   5    0.93    0.65
   4  13   5    0.74    0.56
   4  13   6  190.93    8.86
   4  13   6  158.72    8.86
   4  13   7  254.54   11.44
   4  13   7  218.59   11.56
   4  13   8  106.25    5.85
   4  13   8   95.81    6.04
   4  13   9   32.42    2.66
   4  13   9   28.74    2.83
   4  13  10  372.27   17.39
   4 -13  11  108.09    6.19
   4  13  11   97.97    6.14
   4  13  12   11.39    1.67
   4 -13  13  180.15    8.93
   4  13  13  174.27    9.07
   4 -13  14   65.21    4.05
   4  13  14   79.13    4.55
   4 -13  14   72.46    4.19
   4  13  15   22.25    1.94
   4 -13  15   20.16    1.68
  -4  14  18   10.32    1.21
   4  14 -18   12.73    1.04
  -4  14  17    0.43    0.53
   4  14 -17    0.62    0.39
  -4  14  16   30.67    2.71
   4  14 -16   27.88    2.06
  -4  14  15  113.66    6.80
   4  14 -15  116.20    5.84
  -4  14  15  110.44    6.38
  -4  14  14   80.63    5.86
   4  14 -14   93.91    5.03
  -4  14  14   93.42    5.64
  -4  14  13   35.91    3.57
   4  14 -13   37.03    2.77
  -4  14  12   76.01    5.84
   4  14 -12   78.16    4.67
   4 -14 -11  251.60   12.21
   4  14 -11  254.32   12.03
   4 -14 -10  211.04   10.95
   4  14 -10  230.36   10.89
   4 -14  -9   15.56    1.81
   4 -14  -9   15.84    2.03
   4  14  -9   15.73    1.90
  -4 -14   9   18.24    4.75
  -4  14   9   19.85    4.30
   4  14  -8  108.48    6.19
  -4 -14   8   97.44   12.07
  -4  14   8   95.58   11.42
  -4  14   8   98.48   10.48
   4  14  -7   11.62    1.68
  -4 -14   7    7.11    2.93
  -4  14   7    8.87    3.27
  -4  14   7   13.12    3.68
   4  14  -6   20.39    2.25
  -4 -14   6   16.40    4.52
  -4  14   6   19.39    4.52
  -4  14   6   19.00    1.86
  -4 -14   5   40.48    6.96
   4 -14  -5   42.18    3.56
  -4  14   5   32.47    5.82
   4  14  -5   33.56    3.05
  -4  14   5   34.85    2.68
  -4 -14   4   60.80    8.28
   4 -14  -4   63.35    4.61
   4  14  -4   60.25    4.22
  -4  14   4   53.48    3.60
  -4  14   4   53.28    7.55
  -4 -14   3   26.48    5.20
   4  14  -3   24.87    2.54
  -4  14   3   27.12    2.23
   4 -14  -3   26.33    2.85
  -4  14   2   67.71    4.08
   4  14  -2   69.23    4.65
   4 -14  -2   61.88    4.83
   4 -14  -1    0.36    0.87
  -4  14   1    1.96    0.61
   4  14  -1    0.89    0.77
   4 -14   0    1.29    0.98
   4  14   0    2.24    0.88
   4 -14   1   23.83    2.28
   4  14   1   18.63    1.73
   4  14   1   27.53    2.58
   4 -14   1   25.75    2.84
   4  14   2   13.54    1.42
   4  14   2   14.37    1.86
   4  14   3  353.01   15.75
   4  14   3  361.66   16.58
   4  14   4   43.50    2.98
   4  14   4   44.93    3.45
   4  14   5   42.86    2.95
   4  14   5   42.18    3.33
   4  14   6  176.60    8.63
   4  14   7   48.50    3.16
   4  14   7   38.69    3.09
   4  14   8   53.01    3.37
   4  14   8   43.93    3.43
   4  14   9  184.47    9.35
   4  14  10  111.57    6.46
   4 -14  10  125.21    6.78
   4  14  11   54.75    3.82
   4 -14  11   59.80    3.97
   4  14  12   36.84    2.87
   4 -14  12   43.16    3.17
   4 -14  12   38.44    2.92
   4 -14  13  243.48   11.49
   4  14  13  253.20   11.51
   4  14  14   55.90    3.28
   4 -14  14   63.12    3.38
   4 -14  15   55.29    2.98
  -4  15  17   13.96    1.25
  -4  15  17   11.16    1.20
   4  15 -17   10.43    0.95
  -4  15  16    6.54    1.06
  -4  15  16    7.11    1.02
   4  15 -16    6.52    0.81
   4  15 -15  124.28    6.02
  -4  15  15  115.70    6.74
  -4  15  15  131.09    6.56
  -4  15  14    0.61    0.77
  -4  15  14    1.67    0.68
   4  15 -14    0.61    0.43
  -4  15  13   93.64    5.56
  -4  15  13   93.55    6.14
   4  15 -13   97.13    5.16
  -4  15  12  229.22   12.32
   4  15 -12  236.85   10.98
  -4  15  11    5.77    1.47
   4  15 -11    2.94    0.86
   4  15 -10   37.21    2.89
   4  15  -9    8.66    1.39
   4  15  -8    6.84    1.28
   4  15  -7   11.51    1.65
   4  15  -6  166.61    8.69
  -4  15   6  149.13   13.52
  -4  15   5   83.62    4.71
  -4  15   5   85.31    9.60
   4  15  -5   85.04    5.30
  -4 -15   4   10.87    3.27
  -4  15   4    8.07    2.84
   4  15  -4   12.20    1.79
  -4  15   4   12.70    1.46
   4 -15  -4   11.01    1.83
  -4  15   3  469.03   21.28
  -4  15   3  441.66   28.54
   4  15  -3  501.16   22.22
   4  15  -2   16.22    2.02
  -4  15   2   13.44    1.51
   4 -15  -2   12.27    1.96
   4  15  -1   16.69    2.04
  -4  15   1   15.12    1.62
   4 -15  -1   17.19    2.27
   4 -15   0    1.24    0.94
   4  15   0    1.35    0.81
   4 -15   1   60.65    4.58
   4 -15   1   53.90    3.73
   4  15   1   58.91    4.20
   4 -15   2   85.81    5.81
   4  15   2   84.99    5.35
   4 -15   2   83.14    5.07
   4 -15   3  151.97    8.04
   4 -15   3  167.00    8.97
   4  15   3  154.63    8.19
   4  15   3  145.09    7.27
   4  15   4  119.73    6.49
   4 -15   4  122.26    6.55
   4  15   4  101.25    5.59
   4  15   5   11.91    1.67
   4  15   5   14.61    1.43
   4 -15   6   34.60    2.90
   4  15   6   27.56    2.17
   4 -15   7    0.80    0.83
   4  15   7    0.66    0.42
   4 -15   8    4.65    1.22
   4 -15   9   83.72    5.13
   4 -15  10   38.72    2.98
   4 -15  11    2.71    0.84
   4 -15  11    4.38    1.03
   4 -15  12   49.84    3.20
   4 -15  12   48.58    3.30
   4 -15  13  163.34    7.54
   4 -15  13  154.42    7.53
  -4  16  16    7.96    0.84
   4  16 -16    6.23    0.67
  -4  16  15    0.18    0.44
   4  16 -15    0.44    0.29
  -4  16  15    0.33    0.33
   4  16 -14   41.36    2.58
  -4  16  14   44.88    2.86
  -4  16  14   46.38    3.29
   4  16 -13   45.53    2.84
  -4  16  13   44.92    3.06
  -4  16  13   49.35    3.64
   4  16 -12   11.77    1.35
  -4  16  12   12.44    1.45
  -4  16  12   12.97    1.87
   4  16 -11   22.18    1.96
  -4  16  11   21.69    2.07
  -4  16  11   27.01    2.86
   4  16 -10  167.61    8.29
   4  16  -9  126.19    6.68
   4  16  -8  119.75    6.57
   4 -16  -8  122.71    6.40
   4  16  -7   67.68    4.37
   4  16  -6  159.33    8.32
   4  16  -5   88.31    5.39
  -4  16   4  703.66   31.08
   4  16  -4  805.40   32.15
   4  16  -3   92.17    5.55
   4 -16  -3  102.47    5.90
  -4  16   2    4.30    0.83
   4  16  -2    3.99    1.05
   4 -16  -2    3.16    1.18
   4 -16  -1   71.99    4.90
   4  16  -1   64.68    4.54
   4 -16   0   85.99    5.52
   4  16   0   78.89    5.15
   4 -16   1  235.76   11.93
   4  16   1  230.32   11.48
   4 -16   2    4.81    1.34
   4 -16   2    3.80    0.94
   4  16   2    5.94    1.25
   4 -16   3   10.47    1.74
   4 -16   3    8.84    1.32
   4  16   3    8.97    1.42
   4 -16   4    2.14    0.99
   4 -16   4    2.04    0.81
   4  16   4    3.49    0.93
   4 -16   5    9.22    1.68
   4 -16   5    9.24    1.41
   4 -16   6   88.04    5.52
   4 -16   6   76.32    4.83
   4 -16   7    1.05    0.93
   4 -16   7    0.56    0.67
   4 -16   8  193.98    9.83
   4 -16   8  187.52    9.32
   4 -16   9   59.09    4.04
   4 -16   9   55.24    3.62
   4 -16  10   13.20    1.48
   4 -16  11    1.31    0.64
   4 -16  11    1.01    0.52
   4 -16  12   81.44    4.44
   4 -16  12   86.28    4.37
  -4  17  14    1.28    0.49
   4  17 -14    0.83    0.31
  -4  17  13    6.03    0.79
  -4  17  13    8.32    1.21
   4  17 -13    8.02    0.88
  -4  17  12    0.61    0.57
   4  17 -12    0.87    0.47
  -4  17  12    1.09    0.43
  -4  17  11   17.67    1.59
  -4  17  11   22.25    2.37
   4  17 -11   22.37    1.76
  -4  17  10  335.85   15.25
   4  17 -10  349.65   14.04
  -4  17   9   40.21    2.70
   4  17  -9   45.82    2.99
  -4  17   8    4.65    0.83
   4  17  -8   36.25    2.28
   4 -17  -7    7.24    1.12
   4  17  -7    9.29    1.31
  -4  17   6   44.16    4.08
   4  17  -6   41.55    3.10
   4  17  -5    0.58    0.58
   4  17  -4   22.35    2.21
   4  17  -3  332.54   15.37
   4  17  -2  122.84    6.91
   4 -17  -2  131.20    7.12
   4  17  -1   19.96    2.14
   4 -17  -1   24.87    2.43
   4  17   0   35.41    2.93
   4 -17   0   37.59    3.14
   4  17   1   25.52    2.36
   4 -17   1   22.69    2.44
   4  17   2  307.30   14.20
   4 -17   2  305.26   14.55
   4  17   3  181.10    8.67
   4 -17   3  191.01    9.23
   4 -17   4   64.22    3.91
   4 -17   4   70.40    4.64
   4 -17   5  380.46   17.18
   4 -17   5  409.65   18.02
   4 -17   6    7.34    1.15
   4 -17   6    9.63    1.56
   4 -17   7   46.59    3.08
   4 -17   7   48.46    3.51
   4 -17   8    3.41    0.81
   4 -17   8    2.01    0.80
   4 -17   9   44.22    2.77
   4 -17   9   40.92    2.99
   4 -17  10    8.03    0.99
   4 -17  11   27.44    1.81
  -4  18  12   22.72    1.82
   4  18 -12   20.10    1.43
  -4  18  11   77.75    4.59
   4  18 -11   79.73    3.99
  -4  18  10  285.07   13.60
   4  18 -10  296.81   12.78
  -4  18   9   99.64    5.86
   4  18  -9   97.95    5.01
   4  18  -8   48.44    3.02
   4  18  -7    1.50    0.61
   4 -18  -6    5.50    0.90
   4  18  -6    6.13    1.04
  -4  18   5    0.66    0.86
   4  18  -5    0.57    0.53
   4  18  -4    1.30    0.64
   4  18  -3   42.67    3.09
   4  18  -2  162.54    8.14
   4  18  -1   11.45    1.43
   4 -18  -1    8.66    1.30
   4  18   0   42.51    3.00
   4 -18   0   41.17    3.04
   4  18   1   71.89    4.32
   4 -18   1   73.61    4.50
   4  18   2   12.43    1.50
   4 -18   2   16.44    1.79
   4 -18   3   52.48    3.61
   4 -18   4   29.24    2.47
   4 -18   5    6.19    0.85
   4 -18   5    9.83    1.37
   4 -18   6   17.27    1.46
   4 -18   6   23.66    2.04
   4 -18   7   13.77    1.25
   4 -18   7   16.36    1.62
   4 -18   8  160.03    7.46
   4 -18   8  177.64    8.04
   4 -18   9    4.50    0.78
   4  19 -10   42.60    2.32
  -4  19  10   43.21    2.70
   4  19  -9   21.93    1.52
  -4  19   9   21.31    1.88
   4  19  -8   17.98    1.40
  -4  19   8   16.78    1.74
   4  19  -7    0.48    0.38
   4  19  -6   -0.13    0.38
   4  19  -5  142.47    6.60
   4 -19  -5  130.80    6.35
  -4  19   4   12.97    1.76
   4  19  -4   11.53    1.24
   4 -19  -4   11.67    1.21
   4  19  -3    1.07    0.57
   4  19  -2    4.57    0.83
   4  19  -1   76.63    4.21
   4  19   0    3.20    0.68
   4  19   1    8.35    1.02
   4 -19   1    6.01    0.94
   4 -19   2   33.38    2.35
   4 -19   3   79.23    4.31
   4 -19   4    0.29    0.39
   4 -19   5  120.43    5.94
   4 -19   6    0.25    0.37
  -4  20   7    0.31    0.29
   4  20  -6    5.57    0.64
   4  20  -5   14.46    1.13
   4  20  -4   38.00    2.20
  -4  20   3   92.63    5.09
   4  20  -3   95.55    4.47
   4 -20  -3   88.10    4.37
   4  20  -2    0.59    0.30
   4 -20  -2    1.23    0.42
  -4  20   2    0.27    0.50
  -4  20   1    3.36    0.77
  -5   0  24  142.89    7.35
  -5   0  24  142.61    7.17
  -5   0  23    0.65    0.41
  -5   0  23    0.56    0.71
  -5   0  22   86.14    5.53
  -5   0  22   80.86    4.62
  -5   0  21    0.37    1.01
  -5   0  21    1.06    0.71
  -5   0  20  164.22    9.54
  -5   0  19   -0.21    0.93
   5   0 -18    3.57    2.53
  -5   0  18    8.92    2.25
  -5   0  18    3.78    1.31
  -5   0  18    3.48    1.63
  -5   0  18    1.30    1.51
  -5   0  17    0.90    0.74
   5   0 -17    1.79    2.06
  -5   0  17   -0.21    0.75
  -5   0  17    0.50    1.01
  -5   0  17    1.95    1.50
  -5   0  16  223.37   15.37
   5   0 -16  234.86   19.44
  -5   0  16  225.17   17.02
  -5   0  16  249.01   12.69
  -5   0  16  249.38   16.36
   5   0 -15    0.84    1.93
  -5   0  15    0.18    0.67
  -5   0  15    1.19    1.38
  -5   0  15    0.50    0.81
  -5   0  14   28.73    5.06
   5   0 -14   39.33    7.06
  -5   0  14   36.26    3.32
  -5   0  13    3.27    1.53
  -5   0  13    2.11    1.62
   5   0 -13    1.46    2.07
  -5   0  13    0.93    0.62
  -5   0  12  171.53    9.19
  -5   0  12  180.73   12.59
   5   0 -12  202.31   15.50
  -5   0  11    0.39    0.90
   5   0 -11    2.46    2.01
  -5   0  11    0.13    0.48
  -5   0  10  270.88   15.89
   5   0 -10  281.97   18.66
  -5   0   9    0.95    1.04
   5   0  -9    1.03    1.58
  -5   0   8  267.89   15.04
   5   0  -8  278.98   17.48
   5   0  -7   -0.89    1.70
   5   0  -6  119.61    9.73
   5   0  -5    1.12    1.30
   5   0  -4   25.46    3.85
   5   0  -3    1.78    1.37
   5   0  -2    2.87    1.44
   5   0  -1    0.36    1.01
   5   0   0 1509.59   66.66
   5   0   1    1.14    1.24
   5   0   2 1581.77   70.12
   5   0   3    0.69    0.70
   5   0   4   11.93    2.15
   5   0   4   14.08    3.66
   5   0   5    1.08    0.83
   5   0   5    0.62    1.43
   5   0   6  269.81   12.35
   5   0   6  237.24   12.67
   5   0   6  250.56   18.60
   5   0   6  252.32   14.42
   5   0   6  250.31   11.35
   5   0   7    0.14    0.52
   5   0   7    1.51    2.62
   5   0   7    0.19    0.80
   5   0   7    0.91    0.45
   5   0   7    0.75    0.48
   5   0   8    1.70    0.69
   5   0   8    1.98    0.55
   5   0   8    1.39    0.82
   5   0   8    2.49    2.14
   5   0   8    1.68    1.00
   5   0   8    0.72    0.42
   5   0   9   -0.24    0.53
   5   0   9    0.46    0.30
   5   0   9    0.91    1.81
   5   0   9   -0.23    0.70
   5   0   9    0.10    0.41
   5   0   9    1.83    0.96
   5   0  10  480.46   21.59
   5   0  10  516.81   22.64
   5   0  10  468.36   20.90
   5   0  10  495.28   21.35
   5   0  10  491.76   23.48
   5   0  10  511.69   32.92
   5   0  11    0.19    0.74
   5   0  11    1.04    1.69
   5   0  11    0.26    1.08
   5   0  11    1.00    0.58
   5   0  12  301.66   16.50
   5   0  12  299.42   24.74
   5   0  12  325.68   15.70
   5   0  13    1.10    2.54
   5   0  13   -0.27    1.23
   5   0  13    5.01    1.44
   5   0  14   33.72    4.02
   5   0  14   39.20    7.97
   5   0  14   33.74    3.40
   5   0  15   -0.26    1.22
   5   0  15    0.53    0.76
   5   0  16  124.40    8.42
   5   0  16  140.17    7.75
   5   0  17    0.61    1.11
   5   0  17   -0.13    0.70
   5   0  18   62.42    4.69
   5   0  20  535.39   23.06
  -5  -1  24  175.19    8.61
  -5  -1  24  176.23    8.48
  -5   1  23   17.92    1.59
  -5  -1  23   19.70    2.12
  -5  -1  22  117.06    6.81
  -5   1  22  107.26    5.80
  -5  -1  21   12.73    2.00
  -5   1  21    9.83    1.85
  -5   1  21   10.75    1.41
  -5  -1  20    5.02    1.44
  -5   1  20    4.55    1.38
  -5  -1  19    2.53    1.20
  -5   1  19    3.31    1.33
  -5   1  18    8.54    2.95
  -5   1  18    9.09    2.69
   5  -1 -18    5.36    3.11
  -5   1  18    8.70    2.33
  -5  -1  18    7.22    1.73
  -5   1  18    6.88    1.64
  -5  -1  17   61.27    6.58
  -5   1  17   64.33    7.28
  -5   1  17   71.40    8.65
   5  -1 -17   69.69    9.81
  -5  -1  17   68.89    5.35
  -5   1  17   81.15    5.61
  -5   1  17   64.93    7.38
  -5   1  16  142.94   11.42
  -5   1  16  138.97   12.43
  -5  -1  16  134.22   12.16
   5  -1 -16  152.09   14.80
  -5   1  16  151.38    8.61
  -5  -1  16  135.21    8.34
  -5   1  16  122.97   11.03
  -5  -1  15   58.48    7.36
  -5   1  15   58.33    7.35
   5  -1 -15   54.26    8.36
  -5  -1  15   54.56    4.40
  -5   1  15   53.21    4.34
  -5   1  15   55.15    6.64
  -5   1  14   53.70    4.27
  -5  -1  14   59.33    4.44
  -5   1  14   52.75    6.87
  -5  -1  14   58.48    7.21
   5  -1 -14   57.24    8.36
  -5   1  14   61.75    7.22
  -5   1  13    8.13    2.44
  -5   1  13   10.95    3.02
  -5  -1  13    7.48    1.43
  -5   1  13    7.35    1.41
   5  -1 -13    7.26    3.04
  -5  -1  12  780.37   34.23
  -5   1  12  815.09   39.44
   5  -1 -12  820.27   42.05
  -5   1  12  780.63   34.24
  -5   1  12  850.07   39.52
  -5   1  11  327.40   18.03
  -5  -1  11  290.82   16.54
  -5  -1  11  286.03   13.57
  -5   1  11  273.83   13.53
   5  -1 -11  321.54   20.18
   5  -1 -10  380.45   23.02
  -5  -1  10  370.43   19.84
  -5   1  10  396.51   21.16
   5  -1  -9  117.10   10.24
  -5   1   9  111.34    8.70
  -5  -1   9  111.67    7.97
   5  -1  -8   85.08    8.15
  -5  -1   8   77.09    6.06
   5  -1  -7   15.30    3.37
  -5  -1   7    9.24    1.80
   5  -1  -6   32.82    4.62
  -5   1   6   25.47    2.03
   5  -1  -5 2043.61   88.26
   5  -1  -4   22.96    3.63
   5  -1  -3  498.59   25.39
   5  -1  -2  152.98   10.65
   5  -1  -1   69.65    6.53
   5  -1   0   35.04    4.55
   5  -1   1  874.09   41.09
   5  -1   2 1470.04   65.54
   5   1   3   75.23    5.86
   5  -1   4  254.99   17.34
   5   1   4  244.74   13.65
   5  -1   5   10.57    3.39
   5   1   5   10.59    2.10
   5  -1   6   34.16    2.86
   5   1   6   35.90    2.96
   5   1   6   37.18    4.28
   5   1   6   34.10    2.39
   5  -1   6   38.41    6.34
   5  -1   6   33.95    3.27
   5  -1   7   51.74    3.47
   5   1   7   45.48    2.86
   5  -1   7   51.84    3.75
   5   1   7   44.42    3.59
   5   1   7   50.71    3.13
   5  -1   7   44.81    4.05
   5  -1   7   40.09    6.98
   5  -1   8   11.64    1.73
   5   1   8   10.09    1.65
   5   1   8   12.65    1.27
   5  -1   8   13.37    1.22
   5   1   8   11.03    1.37
   5  -1   8   12.45    4.31
   5  -1   8   14.55    2.22
   5  -1   8   12.12    1.59
   5   1   8   12.32    1.52
   5  -1   9    2.82    0.92
   5   1   9    2.10    0.72
   5  -1   9    4.51    3.13
   5  -1   9    4.56    1.47
   5  -1   9    3.09    1.02
   5   1   9    1.19    0.71
   5   1   9    1.51    0.61
   5   1   9    2.41    0.64
   5  -1   9    2.80    0.59
   5   1  10   80.02    4.68
   5  -1  10   84.24    6.26
   5  -1  10   66.96   10.12
   5  -1  10   73.63    5.26
   5   1  10   76.25    5.42
   5   1  10   73.90    4.33
   5  -1  10   76.51    4.89
   5   1  11    4.33    0.89
   5  -1  11    5.97    1.23
   5  -1  11    3.09    2.92
   5  -1  11    6.72    1.85
   5  -1  11    5.64    1.35
   5   1  11    5.51    1.38
   5  -1  12  321.00   15.70
   5  -1  12  356.93   17.87
   5  -1  12  360.95   26.89
   5   1  12  355.45   16.88
   5  -1  12  339.51   16.60
   5  -1  13   22.95    3.30
   5   1  13   22.24    2.74
   5  -1  13   19.75    2.57
   5  -1  14  266.13   14.43
   5  -1  14  255.58   22.27
   5   1  14  244.83   13.24
   5  -1  14  271.63   13.35
   5  -1  15   34.15    3.84
   5  -1  15   31.23    3.08
   5   1  15   29.57    3.06
   5  -1  16    6.16    1.80
   5  -1  16   10.05    1.63
   5   1  16    8.64    1.63
   5  -1  17  187.81   10.33
   5  -1  17  178.58    9.05
   5   1  17  180.95    9.37
   5   1  18    3.76    0.92
   5  -1  18    5.27    1.35
   5  -1  20   26.92    2.20
  -5  -2  24   40.94    2.67
  -5   2  24   37.56    2.69
  -5  -2  24   37.46    2.74
  -5   2  24   37.67    2.83
  -5  -2  23  254.25   11.69
  -5   2  23  239.12   11.77
  -5  -2  23  243.84   11.43
  -5   2  23  229.25   11.49
  -5  -2  23  239.13   10.64
  -5   2  23  228.70   10.69
  -5  -2  22   19.83    1.75
  -5   2  22   17.79    1.74
  -5  -2  21    1.48    0.65
  -5   2  21    1.29    0.65
  -5  -2  21    2.50    1.11
  -5   2  20   91.18    6.09
  -5  -2  20   77.13    5.79
  -5   2  19  205.36   11.35
  -5  -2  19  208.25   11.50
  -5  -2  18  774.80   38.60
  -5   2  18  753.12   38.91
  -5   2  18  683.24   38.03
  -5  -2  18  753.22   40.27
   5  -2 -18  777.10   43.97
   5   2 -18  690.49   42.45
  -5  -2  18  838.04   35.09
  -5   2  18  828.77   34.97
  -5  -2  17  116.16   10.02
  -5   2  17  106.31    9.96
  -5   2  17  126.52   11.67
  -5  -2  17  140.37   11.95
  -5  -2  17  101.22    8.51
  -5   2  17   95.29    9.47
   5  -2 -17  127.40   13.37
   5   2 -17  105.98   12.28
  -5   2  17  122.87    7.53
  -5  -2  17  115.94    7.47
  -5   2  16    2.61    1.60
   5  -2 -16    1.73    2.45
   5   2 -16    3.42    2.42
  -5   2  16    3.19    1.95
  -5   2  16    4.17    1.91
  -5  -2  16    3.86    1.85
  -5  -2  16    2.61    1.28
  -5   2  16    3.95    1.34
  -5   2  15  130.84   10.85
  -5  -2  15  111.89    9.86
  -5  -2  15  116.77    7.32
  -5   2  15  115.94    7.33
  -5   2  15  136.96   11.70
   5  -2 -15  130.92   13.33
   5   2 -15  108.84   12.31
  -5  -2  14   38.40    3.54
  -5   2  14   40.72    3.57
   5  -2 -14   37.38    6.87
  -5   2  14   39.56    5.81
   5   2 -14   44.58    7.24
  -5   2  14   51.71    6.68
  -5  -2  13  589.80   26.95
  -5   2  13  612.59   32.05
   5  -2 -13  637.78   35.09
   5   2 -13  588.60   34.50
  -5   2  13  612.78   27.04
  -5   2  13  637.31   32.82
  -5  -2  12  821.44   36.36
  -5   2  12  886.26   41.60
   5  -2 -12  898.45   44.46
   5   2 -12  849.10   44.24
  -5   2  12  843.21   36.45
  -5   2  12  873.38   41.97
  -5  -2  11  257.22   12.81
  -5   2  11  304.27   17.25
   5  -2 -11  279.69   18.90
   5   2 -11  280.80   19.08
  -5   2  11  267.00   12.98
  -5   2  11  291.01   17.47
   5   2 -10   13.87    3.74
   5  -2 -10   19.90    4.11
  -5  -2  10   22.32    3.02
  -5   2  10   19.78    3.60
   5  -2  -9  164.14   12.19
   5   2  -9  142.05   11.85
  -5  -2   9  131.33    8.66
  -5   2   9  149.70   10.77
   5  -2  -8   46.57    5.88
   5   2  -8   48.07    6.20
  -5   2   8   41.36    3.23
  -5  -2   8   37.37    3.66
   5  -2  -7   -0.43    1.23
   5   2  -7    0.46    1.31
  -5  -2   7    0.18    0.46
  -5   2   7    0.64    0.39
   5  -2  -6  195.86   12.98
   5   2  -6  199.95   13.36
  -5  -2   6  180.36    9.69
  -5   2   6  180.93    9.33
   5   2  -5   21.21    3.65
   5  -2  -5   23.61    3.87
   5  -2  -4   10.35    2.55
   5   2  -4   13.72    2.99
   5  -2  -3  111.24    8.61
   5   2  -3  107.08    8.68
   5  -2  -2    1.05    1.21
   5   2  -2    3.39    1.51
   5  -2  -1   12.09    2.63
   5   2  -1   12.81    2.76
   5  -2   0  703.44   33.39
   5   2   0  676.31   33.61
   5  -2   1  405.89   21.14
   5   2   1  368.34   21.14
   5   2   2  945.50   46.15
   5  -2   2 1053.91   46.24
   5  -2   2  974.89   43.03
   5   2   3 1282.27   56.30
   5  -2   3 1316.68   55.98
   5  -2   4    7.37    1.71
   5   2   4    5.27    1.54
   5   2   5  149.28    9.39
   5  -2   5  123.50    8.55
   5  -2   5  139.67   12.25
   5   2   5  119.48   11.42
   5  -2   6  173.58    9.64
   5   2   6  172.58    9.59
   5  -2   6  178.49   14.89
   5   2   6  174.66   14.67
   5  -2   6  180.60    9.11
   5   2   6  176.66    8.37
   5  -2   6  190.12   11.20
   5  -2   6  171.76    8.21
   5   2   6  201.70   11.78
   5  -2   6  172.88    8.77
   5  -2   7    9.68    1.42
   5   2   7    7.57    1.00
   5  -2   7   10.54    3.49
   5   2   7    5.97    2.88
   5  -2   7    9.43    1.77
   5   2   7    8.76    1.67
   5   2   7   10.19    1.21
   5  -2   7    9.30    1.12
   5  -2   7    8.18    1.41
   5   2   7    6.98    1.35
   5  -2   8  973.96   40.88
   5   2   8  925.17   40.31
   5   2   8  937.06   40.05
   5   2   8  996.55   41.46
   5  -2   8  940.84   41.15
   5   2   8  973.65   40.32
   5  -2   8 1056.14   42.47
   5   2   8  949.35   42.08
   5  -2   8 1123.72   52.68
   5   2   8 1012.33   51.60
   5  -2   8  954.91   40.13
   5  -2   9  299.88   14.25
   5   2   9  287.61   13.50
   5   2   9  310.04   14.87
   5  -2   9  305.12   14.66
   5  -2   9  317.96   15.72
   5   2   9  297.24   15.53
   5  -2   9  353.68   24.17
   5   2   9  319.63   23.30
   5  -2   9  295.67   13.59
   5   2   9  302.55   13.79
   5  -2  10   60.85    4.24
   5   2  10   54.24    3.61
   5   2  10   60.10    4.65
   5  -2  10   58.07    4.45
   5  -2  10   67.01    5.38
   5   2  10   55.74    5.04
   5  -2  10   65.29    9.82
   5   2  10   76.00   10.52
   5  -2  11   74.09    4.81
   5   2  11   66.54    4.20
   5   2  11   71.80    5.29
   5  -2  11   75.46    5.23
   5  -2  11   75.24    5.94
   5   2  11   68.53    5.81
   5   2  11   53.98    9.48
   5  -2  11   61.79    9.84
   5   2  12  137.19    8.26
   5  -2  12  137.21    8.05
   5  -2  12  134.78    7.53
   5  -2  12  131.95    8.89
   5   2  12  145.55    9.24
   5  -2  12  102.75   13.64
   5   2  12  125.86   14.86
   5   2  13  368.20   17.82
   5  -2  13  394.14   17.67
   5  -2  13  338.90   16.67
   5  -2  13  381.06   18.79
   5   2  13  361.83   18.80
   5  -2  13  350.60   27.09
   5   2  13  335.26   27.06
   5  -2  14  179.96   10.73
   5   2  14  170.12   10.75
   5  -2  14  194.48   18.23
   5   2  14  169.81   17.63
   5   2  14  167.32    9.81
   5  -2  14  182.70    9.66
   5   2  15   14.00    2.14
   5  -2  15   15.79    2.05
   5  -2  15   13.08    2.44
   5   2  16   39.34    3.57
   5  -2  16   45.46    3.41
   5  -2  16   41.03    4.07
   5   2  16   47.31    4.40
   5  -2  17    6.66    1.64
   5   2  17    5.50    1.54
   5   2  17    3.67    1.16
   5   2  18   20.42    2.01
   5  -2  19    5.29    1.19
   5   2  19    4.91    1.18
   5  -2  20   26.24    2.00
   5   2  20   20.57    1.89
  -5  -3  24    0.41    0.39
  -5   3  24   -0.16    0.47
  -5   3  24    0.26    0.40
  -5  -3  24    0.47    0.42
  -5   3  24    0.65    0.49
  -5  -3  23   35.12    2.80
  -5   3  23   35.72    2.95
  -5  -3  23   36.21    2.67
  -5   3  23   31.44    2.71
  -5   3  23   33.97    2.79
  -5  -3  23   33.65    2.16
  -5   3  23   28.67    2.14
  -5   3  22    2.81    0.68
  -5  -3  22    1.93    0.61
  -5  -3  21   17.77    2.31
  -5  -3  21   12.99    1.47
  -5   3  21   13.53    1.60
  -5   3  20  120.51    7.72
  -5  -3  20  137.34    8.04
  -5  -3  19  155.98    9.13
  -5   3  19  149.17    8.96
  -5  -3  18   41.64    5.61
  -5   3  18   44.64    5.99
  -5   3  18   53.52    4.43
  -5  -3  18   55.39    4.58
  -5  -3  18   54.26    6.93
   5  -3 -18   42.79    7.76
   5   3 -18   37.32    7.16
  -5   3  18   35.02    5.42
  -5  -3  17  220.51   14.80
  -5   3  17  216.71   15.26
  -5   3  17  224.02   11.82
  -5  -3  17  234.03   12.09
  -5   3  17  204.70   15.16
  -5  -3  17  211.28   15.82
   5  -3 -17  196.91   17.86
   5   3 -17  169.29   16.72
  -5  -3  16  253.00   16.31
  -5   3  16  246.65   16.72
  -5   3  16  256.19   17.94
  -5   3  16  257.49   13.15
  -5  -3  16  254.48   13.18
  -5  -3  16  229.40   16.95
  -5   3  16  230.99   16.62
   5  -3 -16  252.94   20.01
   5   3 -16  252.29   19.94
  -5   3  15  106.55   10.69
  -5   3  15   85.87    9.07
  -5  -3  15   92.95    9.48
   5  -3 -15  110.94   12.11
   5   3 -15  100.01   11.55
  -5   3  15  109.58   10.27
  -5  -3  15   98.16    6.58
  -5  -3  15  108.64    9.37
  -5   3  15  104.06    9.59
  -5   3  15   98.66    6.53
   5  -3 -14    8.46    3.21
   5   3 -14    6.99    3.24
  -5   3  14   10.06    3.09
  -5   3  14    9.25    2.82
  -5  -3  14    4.09    1.36
  -5   3  14    7.98    1.56
  -5   3  13   49.96    6.78
   5   3 -13   39.49    7.10
  -5   3  13   56.78    6.62
   5  -3 -13   52.82    7.60
  -5   3  13   54.57    4.11
  -5  -3  13   47.77    3.95
  -5   3  12  125.75   10.84
  -5   3  12  139.82   10.51
   5  -3 -12  126.08   11.85
   5   3 -12  128.46   12.20
  -5   3  12  116.61    6.95
  -5  -3  12  113.24    6.83
  -5   3  11  539.06   28.22
  -5   3  11  542.35   26.94
   5  -3 -11  556.65   29.85
   5   3 -11  527.36   29.81
  -5   3  11  502.70   22.83
  -5  -3  11  490.58   22.62
  -5   3  10  103.91    8.36
   5  -3 -10   96.94    9.50
   5   3 -10   99.23    9.97
  -5   3  10  100.57    9.11
  -5   3  10  103.11    5.98
   5  -3  -9   70.85    7.47
   5   3  -9   69.26    7.72
  -5   3   9   53.29    4.36
   5  -3  -8    6.96    2.42
   5   3  -8    7.62    2.58
  -5   3   8    9.81    1.60
   5  -3  -7  745.56   34.99
   5   3  -7  719.29   35.40
  -5   3   7  667.45   30.50
   5  -3  -6   15.70    3.25
   5   3  -6   12.33    2.94
   5  -3  -5   31.83    4.27
   5   3  -5   24.79    4.03
   5  -3  -4    0.36    1.43
   5   3  -4   -0.39    1.20
   5  -3  -3  657.80   30.98
   5   3  -3  602.70   31.14
   5  -3  -2    2.42    1.33
   5   3  -2    1.95    1.43
   5  -3  -1   38.30    2.55
   5  -3  -1   43.89    4.95
   5   3  -1   45.65    5.27
   5  -3   0  287.93   15.16
   5   3   0  266.53   15.45
   5  -3   1  204.99    9.71
   5  -3   1  244.03   13.95
   5   3   1  222.25   14.16
   5  -3   2  186.06   10.62
   5   3   2  202.71   11.21
   5  -3   2  192.41   12.72
   5   3   3  205.54   11.92
   5  -3   3  212.01   11.61
   5   3   4   77.44    6.15
   5  -3   4   72.47    5.74
   5  -3   5  216.65   11.81
   5   3   5  206.65   12.11
   5   3   5  189.29    9.85
   5  -3   5  190.28   15.12
   5   3   5  192.13   15.02
   5  -3   5  195.52    9.60
   5  -3   6  340.06   14.65
   5  -3   6  338.26   14.81
   5  -3   6  294.59   13.72
   5   3   6  315.65   13.98
   5  -3   6  314.30   15.35
   5   3   6  298.74   15.17
   5  -3   6  347.51   22.09
   5   3   6  326.56   21.55
   5   3   6  308.30   13.87
   5  -3   7  310.18   14.81
   5  -3   7  334.40   15.14
   5  -3   7  310.32   14.09
   5   3   7  321.84   14.33
   5  -3   7  323.82   15.89
   5   3   7  315.83   15.75
   5  -3   7  380.56   23.55
   5   3   7  358.58   22.96
   5   3   7  317.38   14.20
   5   3   8   92.96    5.96
   5  -3   8   97.34    5.83
   5   3   8   89.81    5.00
   5  -3   8   95.87    6.50
   5   3   8   92.54    6.40
   5  -3   8   89.61    4.94
   5  -3   8  101.81   11.42
   5   3   8   97.70   11.14
   5   3   8   92.24    5.13
   5  -3   8   90.33    5.57
   5   3   9  214.95   11.44
   5  -3   9  231.52   11.35
   5   3   9  209.27   10.28
   5  -3   9  235.54   12.35
   5   3   9  215.95   12.10
   5  -3   9  248.71   19.58
   5   3   9  249.53   19.69
   5  -3   9  220.11   10.27
   5   3   9  214.16   10.43
   5  -3   9  217.97   11.02
   5   3  10   94.00    6.42
   5  -3  10  117.09    6.63
   5   3  10   94.25    5.53
   5  -3  10  117.68    7.52
   5   3  10   99.76    7.15
   5  -3  10  112.20   12.79
   5   3  10  101.30   12.53
   5  -3  10   99.16    6.13
   5   3  11   29.19    3.09
   5  -3  11   31.16    3.03
   5   3  11   25.60    2.31
   5  -3  11   30.39    3.56
   5   3  11   26.59    3.42
   5  -3  11   33.71    7.24
   5   3  11   25.70    6.38
   5  -3  11   26.37    2.69
   5   3  12  130.90    8.04
   5  -3  12  149.19    7.94
   5   3  12  127.92    6.90
   5  -3  12  136.25    8.75
   5   3  12  125.36    8.66
   5  -3  12  127.59   14.65
   5   3  12  132.03   15.32
   5  -3  12  117.44    7.23
   5  -3  13    1.03    2.37
   5   3  13    1.09    1.79
   5  -3  13    2.04    1.41
   5   3  13    1.09    1.22
   5  -3  13    3.16    1.09
   5   3  13    4.26    1.35
   5  -3  13    1.31    0.82
   5  -3  14   23.55    2.55
   5  -3  14   25.15    3.27
   5   3  14   23.20    3.27
   5   3  14   20.78    2.65
   5  -3  14   18.86    2.10
   5   3  15  430.17   21.45
   5  -3  15  449.71   21.30
   5   3  15  428.74   20.47
   5  -3  16  101.18    6.79
   5   3  16   99.18    7.02
   5   3  16   99.19    6.34
   5  -3  17   58.32    4.50
   5   3  17   56.49    4.63
   5   3  17   54.52    4.06
   5   3  18    0.56    0.64
   5   3  19   44.00    3.37
   5  -3  19   45.72    3.26
   5   3  19   45.74    2.86
  -5   4  24    0.81    0.40
  -5   4  24    0.95    0.44
  -5  -4  23    1.50    0.64
  -5   4  23    0.73    0.60
  -5  -4  23    0.97    0.51
  -5   4  23    0.55    0.50
   5   4 -23    0.51    0.35
  -5   4  23    0.58    0.64
  -5  -4  22   37.26    2.47
  -5   4  22   39.71    2.64
  -5  -4  21   16.49    1.60
  -5   4  21   16.46    1.71
  -5  -4  20   58.95    3.75
  -5   4  20   60.09    3.95
  -5  -4  19  316.37   15.18
  -5   4  19  291.63   14.90
  -5   4  19  286.23   13.46
  -5  -4  18  410.54   24.00
  -5   4  18  390.08   24.46
  -5   4  18  354.71   24.29
  -5  -4  18  432.65   25.70
   5  -4 -18  410.43   28.09
   5   4 -18  398.84   27.64
  -5  -4  18  489.82   21.68
  -5   4  18  487.40   21.56
  -5   4  18  480.75   20.07
  -5   4  17   23.80    2.90
  -5  -4  17   30.27    3.27
  -5   4  17   19.09    4.03
  -5  -4  17   24.54    4.20
  -5  -4  17   22.11    4.35
   5  -4 -17   27.36    5.90
   5   4 -17   25.16    5.78
  -5   4  17   22.55    4.33
   5  -4 -16   34.58    6.73
  -5  -4  16   38.40    5.77
   5   4 -16   25.25    5.65
  -5   4  16   32.54    5.37
  -5   4  16   32.49    5.94
  -5   4  16   38.98    3.66
  -5  -4  16   32.84    3.47
  -5   4  16   40.49    5.60
  -5  -4  16   30.24    4.66
  -5  -4  16   33.46    6.05
   5  -4 -15   31.85    6.20
   5   4 -15   35.10    6.54
  -5   4  15   39.05    5.80
  -5   4  15   32.28    5.96
  -5  -4  15   38.57    3.66
  -5  -4  15   33.14    4.91
  -5   4  15   41.04    5.75
  -5  -4  15   31.20    5.27
  -5   4  15   32.52    5.34
  -5   4  15   38.13    3.58
  -5   4  14   63.35    7.52
   5  -4 -14   68.50    9.06
   5   4 -14   69.85    9.14
  -5   4  14   67.72    7.65
  -5   4  14   80.55    9.22
  -5  -4  14   66.16    5.08
  -5   4  14   77.51    7.97
  -5   4  14   76.54    5.28
   5  -4 -13    3.52    2.30
   5   4 -13    3.64    2.38
  -5   4  13    5.04    2.31
  -5   4  13    4.32    2.15
  -5   4  13    4.49    1.21
  -5  -4  13    3.05    1.06
  -5   4  12   49.03    6.66
  -5  -4  12   41.91    3.58
   5  -4 -12   58.92    7.55
   5   4 -12   45.09    6.89
  -5   4  12   46.70    5.61
  -5   4  12   45.84    3.72
  -5   4  11  556.84   29.53
  -5  -4  11  489.09   23.28
  -5   4  11  588.29   27.54
   5  -4 -11  559.11   30.07
   5   4 -11  541.23   30.36
  -5   4  11  525.48   23.58
   5  -4 -10    5.45    2.29
  -5   4  10    9.95    2.92
  -5   4  10    8.13    1.73
  -5  -4  10    8.57    1.33
  -5   4  10   12.00    2.50
  -5   4  10    7.16    1.30
  -5   4   9  549.10   25.15
   5  -4  -9  544.73   27.98
   5   4  -9  499.80   28.08
  -5   4   9  454.51   23.33
   5  -4  -8  661.47   32.12
   5   4  -8  560.73   31.80
  -5   4   8  672.10   29.27
  -5   4   8  577.57   27.95
   5  -4  -7    1.75    1.52
   5   4  -7    2.48    1.72
  -5   4   7    1.50    0.83
   5  -4  -6  124.10    9.54
   5   4  -6  113.89    9.67
   5  -4  -5    1.49    1.29
   5   4  -5   -0.42    1.08
   5  -4  -4  187.26   11.89
   5   4  -4  159.64   11.83
   5  -4  -3  219.92   13.50
   5   4  -3  209.14   13.89
   5  -4  -2  388.43   19.44
   5   4  -2  372.42   20.01
   5  -4  -2  333.49   15.22
   5  -4  -1  446.91   21.51
   5   4  -1  415.09   21.99
   5  -4  -1  381.11   17.18
   5  -4   0    1.86    0.61
   5  -4   0    2.41    1.44
   5   4   0    2.05    1.50
   5  -4   1  216.10   12.92
   5   4   1  195.86   13.21
   5  -4   1  183.02    8.94
   5  -4   2   69.85    5.45
   5   4   2   92.22    6.39
   5  -4   3   25.50    3.01
   5   4   3   25.43    3.23
   5  -4   4  255.29   13.86
   5   4   4  271.06   14.62
   5   4   5  211.18   10.53
   5  -4   5  220.12   10.33
   5  -4   5  218.88   10.40
   5   4   5  192.53   10.63
   5  -4   5  216.43   10.92
   5   4   5  203.48    9.68
   5  -4   5  228.45   12.29
   5   4   5  212.36    9.70
   5   4   5  226.14   12.87
   5  -4   5  204.34    9.47
   5  -4   6    1.11    0.70
   5  -4   6    2.43    0.56
   5   4   6    1.65    0.57
   5  -4   6    0.67    1.33
   5   4   6    0.66    1.07
   5  -4   6    3.07    1.02
   5   4   6    1.68    0.80
   5  -4   6    1.25    0.63
   5   4   6    3.04    0.93
   5   4   6    1.09    0.44
   5   4   7   68.91    4.26
   5  -4   7   76.47    4.83
   5   4   7   69.85    4.95
   5  -4   7   85.42    5.66
   5   4   7   66.48    5.15
   5  -4   7   83.99    9.78
   5   4   7   66.82    8.74
   5  -4   7   75.74    4.12
   5   4   7   75.62    4.31
   5   4   7   78.64    4.35
   5  -4   7   75.05    4.82
   5  -4   8  928.53   38.63
   5  -4   8  948.69   38.70
   5  -4   8  975.61   39.82
   5   4   8  833.35   39.31
   5  -4   8 1058.31   50.16
   5   4   8  927.35   48.33
   5  -4   8  892.67   37.58
   5   4   8  923.25   37.89
   5   4   8  861.81   37.81
   5   4   8  863.31   37.78
   5  -4   9   86.35    5.34
   5   4   9   73.59    4.57
   5  -4   9   78.27    5.16
   5  -4   9   95.28    6.28
   5   4   9   69.71    5.68
   5  -4   9   74.04    4.38
   5   4   9   80.00    4.65
   5  -4   9   97.31   11.38
   5   4   9   84.13   10.65
   5  -4  10  247.63   12.43
   5   4  10  242.16   11.75
   5  -4  10  283.30   12.73
   5   4  10  238.28   12.81
   5  -4  10  258.86   13.64
   5   4  10  228.28   13.30
   5  -4  10  267.00   21.05
   5   4  10  244.46   20.56
   5  -4  11    1.92    2.48
   5   4  11    1.01    2.02
   5  -4  11    3.13    1.31
   5   4  11    1.27    1.05
   5  -4  11    1.11    0.84
   5   4  11    2.79    0.85
   5  -4  11    0.80    0.69
   5   4  11    0.60    0.83
   5  -4  12    0.98    1.13
   5   4  12    1.05    1.21
   5  -4  12    0.49    1.27
   5   4  12    0.26    0.96
   5  -4  12    0.63    0.80
   5   4  12    1.56    0.72
   5  -4  12    0.32    0.64
   5   4  12    0.41    0.94
   5  -4  13   30.54    2.92
   5  -4  13   35.93    3.80
   5   4  13   33.49    3.89
   5  -4  13   34.31    7.09
   5   4  13   32.97    6.95
   5   4  13   28.82    3.26
   5  -4  14   36.53    3.14
   5   4  14   35.44    4.02
   5  -4  14   45.89    4.29
   5   4  14   40.52    3.76
   5  -4  15  389.04   17.52
   5   4  15  368.18   17.72
   5   4  15  377.71   16.96
   5  -4  16   23.19    2.70
   5   4  16   18.40    2.66
   5   4  16   17.33    2.28
   5   4  17   38.92    3.28
   5  -4  18   64.07    4.26
   5   4  18   57.40    3.88
   5  -4  19    5.34    0.95
   5   4  19    3.88    0.93
   5   4  19    6.39    0.92
   5   5 -23   10.42    1.04
  -5   5  23   17.23    1.77
  -5  -5  23   14.71    1.36
  -5   5  23   10.85    1.36
  -5  -5  23   18.09    1.56
  -5   5  23   12.00    1.46
  -5   5  22    3.29    0.96
  -5  -5  22    4.47    0.98
  -5   5  22    3.58    1.00
  -5  -5  22    3.96    0.88
  -5   5  22    3.86    0.99
  -5   5  22    3.81    0.70
  -5  -5  22    2.99    0.60
   5   5 -22    2.55    0.61
  -5  -5  21   14.07    1.43
  -5   5  21   18.57    1.71
  -5   5  20    6.18    1.01
  -5  -5  20    4.49    0.89
  -5   5  20    4.93    1.01
  -5   5  19    1.00    0.64
  -5   5  18  110.35    6.26
  -5  -5  18  122.33    7.50
  -5   5  18   99.47    6.97
  -5  -5  17   49.30    5.88
  -5   5  17   48.44    6.13
   5  -5 -17   47.02    7.51
   5   5 -17   40.13    7.02
  -5   5  17   40.50    6.05
  -5  -5  17   46.49    6.37
  -5  -5  17   65.41    4.88
  -5   5  17   48.21    4.31
  -5   5  16   10.62    3.17
   5  -5 -16   14.88    4.18
   5   5 -16   16.39    4.36
  -5   5  16   12.10    3.64
  -5  -5  16   11.48    3.59
  -5   5  16   13.76    2.23
  -5   5  16   13.72    3.21
  -5  -5  16   15.48    3.19
  -5  -5  16   13.61    3.49
  -5  -5  16   15.50    2.29
  -5   5  15   25.00    4.72
   5   5 -15   26.23    5.56
  -5  -5  15   33.58    5.27
   5  -5 -15   43.54    7.00
  -5   5  15   28.21    5.69
  -5  -5  15   29.41    6.12
  -5   5  15   33.08    3.32
  -5  -5  15   27.67    4.30
  -5   5  15   33.49    5.09
  -5  -5  15   31.77    3.29
  -5   5  14   13.57    3.90
  -5   5  14   12.06    1.96
  -5  -5  14   11.48    1.96
  -5  -5  14   13.26    2.88
  -5   5  14   10.60    2.90
  -5   5  14   11.57    3.00
   5  -5 -14   16.05    4.15
   5   5 -14    9.74    3.60
  -5   5  13  542.54   30.24
   5  -5 -13  588.03   32.81
   5   5 -13  559.11   32.72
  -5   5  13  576.31   32.51
  -5   5  13  555.29   25.65
  -5   5  13  621.63   30.17
  -5  -5  13  558.44   25.60
  -5   5  12   20.51    4.51
  -5   5  12   21.07    2.48
   5  -5 -12   24.21    4.94
   5   5 -12   18.41    4.31
  -5   5  12   25.82    3.99
  -5  -5  12   17.01    2.22
   5  -5 -11   16.24    1.67
   5  -5 -11   25.28    4.76
   5   5 -11   12.85    3.71
  -5   5  11   18.27    4.10
  -5   5  11   16.90    2.15
  -5   5  11   16.19    3.09
  -5  -5  11   24.13    2.41
  -5   5  10  739.00   33.09
   5  -5 -10  744.63   36.42
   5   5 -10  666.19   36.44
  -5   5  10  736.18   36.81
  -5   5  10  662.40   31.95
  -5   5  10  685.24   30.25
   5  -5 -10  697.30   29.30
  -5  -5  10  659.75   29.95
  -5   5   9  432.72   22.44
   5   5  -9  469.94   26.62
  -5   5   9  464.86   22.92
   5  -5  -9  475.04   25.89
  -5   5   9  467.99   20.87
  -5   5   8   82.66    6.57
   5  -5  -8   96.50    8.73
   5   5  -8   90.97    9.04
  -5   5   8   93.21    6.74
  -5   5   7    3.93    1.29
  -5   5   7    2.56    0.96
   5  -5  -7    0.88    1.02
   5   5  -7    4.22    1.95
  -5   5   6   65.47    4.98
   5  -5  -6   81.91    7.25
   5   5  -6   76.12    7.54
  -5   5   5  604.00   27.75
   5   5  -5  645.36   32.05
   5  -5  -5  692.79   31.64
   5   5  -4  316.42   18.92
   5  -5  -4  338.56   18.49
   5  -5  -3    1.40    0.99
   5   5  -3    2.92    1.45
   5  -5  -2  119.82    8.87
   5   5  -2  117.26    9.37
   5  -5  -2  112.65    5.97
   5  -5  -1 1179.28   49.59
   5   5  -1 1091.31   50.18
   5  -5  -1 1062.49   45.20
   5   5   0  751.13   38.27
   5  -5   0  785.12   33.80
   5  -5   1   64.74    6.13
   5  -5   1   55.52    3.60
   5  -5   1   58.70    4.54
   5   5   1   67.98    5.27
   5  -5   2   69.22    5.12
   5   5   2   63.71    5.39
   5   5   3  242.05   13.08
   5  -5   3  219.19   12.17
   5   5   4   20.03    2.91
   5  -5   4   13.95    2.22
   5   5   4   16.08    1.84
   5  -5   4   14.98    1.73
   5   5   5   68.51    3.85
   5  -5   5   69.63    3.68
   5   5   5   75.91    6.27
   5  -5   5   74.81    4.90
   5   5   5   56.74    4.44
   5   5   5   63.96    4.45
   5   5   5   69.69    3.98
   5  -5   6   74.76    4.81
   5   5   6   75.90    4.24
   5  -5   6   72.40    4.01
   5   5   6   76.74    5.03
   5   5   6   74.87    4.34
   5  -5   6   84.78    5.42
   5   5   6   70.16    5.07
   5  -5   7  139.90    7.84
   5   5   7  146.25   13.43
   5  -5   7  145.61    7.00
   5   5   7  150.44    7.27
   5  -5   7  149.25    8.53
   5   5   7  133.68    8.25
   5   5   7  148.11    8.22
   5   5   7  145.09    7.35
   5   5   8    0.63    0.47
   5  -5   8    1.49    0.84
   5   5   8    0.87    0.75
   5  -5   8    3.85    2.35
   5   5   8    3.91    2.39
   5  -5   8    0.39    0.78
   5   5   8    3.17    1.10
   5  -5   8    0.64    0.45
   5   5   8    0.39    0.43
   5   5   8    1.36    0.59
   5   5   9   35.92    2.78
   5   5   9   31.23    2.72
   5  -5   9   43.13    3.91
   5   5   9   37.93    3.72
   5  -5   9   35.69    6.86
   5   5   9   45.22    7.70
   5  -5   9   34.89    3.16
   5   5  10   23.87    2.24
   5  -5  10   32.50    3.37
   5   5  10   21.97    2.93
   5  -5  10   32.61    6.58
   5   5  10   22.07    5.79
   5  -5  10   21.74    2.48
   5   5  10   21.11    2.14
   5  -5  11   37.03    3.37
   5  -5  11   40.76    4.06
   5   5  11   36.07    3.94
   5  -5  11   35.74    7.12
   5   5  11   37.98    7.38
   5   5  11   41.76    3.88
   5   5  11   46.08    3.29
   5  -5  12   38.53    3.42
   5  -5  12   41.21    4.09
   5   5  12   37.09    4.06
   5   5  12   39.30    7.71
   5  -5  12   49.39    8.21
   5   5  12   39.28    3.82
   5   5  12   42.45    3.20
   5   5  13  142.17    8.46
   5  -5  13  146.03    8.91
   5   5  13  144.17    9.05
   5  -5  13  128.53    7.63
   5   5  14  274.06   13.86
   5  -5  14  294.50   14.37
   5   5  14  268.50   14.44
   5  -5  14  251.54   12.85
   5   5  15  209.14   10.49
   5  -5  15  197.13   10.55
   5   5  15  187.05   10.81
   5  -5  15  169.73    9.15
   5   5  16   18.68    2.61
   5   5  16   28.85    2.83
   5   5  17   42.30    3.40
   5   5  18  113.22    6.10
   5   5  18  103.87    6.27
   5  -5  18  115.74    6.17
   5   5  19   45.10    2.78
   5   5  19   41.16    2.83
   5   6 -23   74.39    3.85
  -5   6  23  112.96    5.10
  -5  -6  22   50.54    2.94
  -5   6  22   40.00    3.01
  -5  -6  22   49.99    3.08
  -5   6  22   33.66    2.96
   5   6 -22   40.76    2.54
  -5   6  22   52.51    3.56
  -5   6  22   40.95    3.12
  -5  -6  21  240.15   11.02
   5   6 -21  211.66   10.17
  -5  -6  21  229.45   10.07
  -5   6  21  212.57   10.17
  -5   6  21  231.30   10.21
  -5  -6  20   22.34    1.85
  -5   6  20   21.27    1.94
  -5   6  20   21.47    1.97
  -5  -6  19    2.08    0.66
  -5   6  19    1.31    0.60
  -5   6  19    2.69    0.80
  -5   6  18    1.06    0.72
  -5   6  17   35.38    3.56
   5  -6 -17   32.60    5.87
   5   6 -17   22.28    4.79
  -5   6  17   26.99    4.81
  -5  -6  17   40.77    5.54
  -5  -6  17   29.83    4.17
  -5   6  17   33.91    4.91
  -5  -6  16  128.30   13.68
  -5   6  16  149.93    8.79
  -5  -6  16  134.28   10.52
  -5   6  16  149.43   11.53
  -5  -6  16  153.95   12.08
  -5   6  16  143.16   12.32
   5  -6 -16  154.96   13.99
   5   6 -16  118.67   12.50
  -5   6  16  149.60   14.17
  -5  -6  15   23.54    5.39
  -5   6  15   23.28    2.78
  -5  -6  15   17.99    2.49
  -5   6  15   20.32    5.01
  -5   6  15   18.35    3.70
  -5  -6  15   15.39    3.17
  -5  -6  15   18.34    3.81
   5  -6 -15   23.92    5.28
   5   6 -15   20.69    4.74
  -5   6  14   82.60    5.96
  -5  -6  14   80.52   10.77
  -5  -6  14   93.88    6.16
  -5   6  14   88.74   10.28
  -5  -6  14   80.26    7.75
  -5   6  14   92.73    8.63
   5   6 -14   89.29   10.17
  -5   6  14   77.05    8.58
   5  -6 -14   89.57   10.07
  -5   6  13   68.20    5.19
  -5  -6  13   77.60    5.30
  -5   6  13   74.75    9.12
  -5   6  13   77.92    7.74
  -5  -6  13   63.34    6.65
   5  -6 -13   86.97    9.69
  -5   6  13   57.96    7.23
   5   6 -13   66.68    8.63
  -5   6  12   60.36    4.67
  -5  -6  12   66.08    4.68
  -5   6  12   49.35    7.26
  -5   6  12   51.19    5.81
  -5   6  12   61.03    6.98
   5  -6 -12   65.88    8.03
   5   6 -12   54.40    7.66
   5  -6 -11   49.24    3.24
  -5   6  11   47.82    3.95
  -5  -6  11   48.54    3.84
  -5   6  11   48.02    7.01
  -5   6  11   40.22    4.76
  -5   6  11   41.96    4.91
   5   6 -11   42.09    6.52
   5  -6 -11   49.68    6.67
  -5   6  10  274.52   13.46
  -5  -6  10  265.77   13.11
  -5   6  10  254.98   18.47
  -5   6  10  279.84   15.60
   5  -6 -10  271.06   17.82
   5   6 -10  270.42   18.44
  -5   6  10  264.71   15.16
   5  -6 -10  267.68   12.37
  -5   6   9   18.98    2.28
  -5  -6   9   22.03    2.23
  -5   6   9   18.53    3.01
   5  -6  -9   21.56    4.17
   5   6  -9   26.49    4.82
  -5   6   9   20.40    2.95
   5  -6  -9   18.61    1.83
   5  -6  -8  836.96   39.19
  -5   6   8  780.42   35.25
  -5   6   8  809.83   36.66
   5   6  -8  755.93   38.93
  -5   6   8  806.71   34.10
   5  -6  -8  763.09   33.07
  -5   6   7  864.09   39.60
   5  -6  -7  962.29   41.78
   5   6  -7  893.78   42.24
  -5   6   7  808.73   37.63
   5  -6  -6    2.35    1.57
   5   6  -6    2.74    1.50
  -5   6   6    2.13    0.74
   5  -6  -5    4.10    1.67
   5   6  -5    0.44    1.14
   5  -6  -4  249.24   14.33
   5   6  -4  198.99   14.08
   5  -6  -3  774.95   34.52
   5   6  -3  680.50   34.84
   5  -6  -3  708.09   30.47
   5  -6  -2  953.50   42.28
   5   6  -2  889.10   42.95
   5  -6  -2  908.57   38.46
   5  -6  -1   81.29    6.89
   5   6  -1   70.25    6.99
   5  -6  -1   77.33    4.60
   5  -6   0   71.00    6.47
   5   6   0   58.39    6.46
   5  -6   0   73.63    4.37
   5   6   1   22.13    2.85
   5  -6   1   21.27    2.05
   5  -6   1   25.32    2.72
   5   6   2   66.88    5.32
   5  -6   2   57.19    4.60
   5  -6   2   59.01    3.83
   5   6   2   59.31    3.54
   5  -6   3  379.99   16.73
   5   6   3  349.41   16.23
   5   6   3  369.18   16.22
   5   6   3  380.21   18.78
   5  -6   3  385.31   18.16
   5   6   4   22.56    2.26
   5   6   4   24.13    3.22
   5  -6   4   26.61    3.05
   5   6   5  105.16    6.22
   5   6   5  100.44    5.31
   5  -6   5  108.47    5.20
   5  -6   6  249.58   11.73
   5   6   6  233.40   10.37
   5  -6   6  222.92   10.10
   5   6   6  220.40   11.34
   5  -6   7   49.80    3.05
   5   6   7   50.73    3.22
   5  -6   7   60.82    4.37
   5  -6   7   54.26    3.97
   5   6   7   52.61    4.09
   5   6   8   33.07    2.49
   5  -6   8   36.13    3.44
   5   6   8   33.99    3.36
   5  -6   8   37.53    3.21
   5   6   8   27.83    3.02
   5  -6   9   31.78    3.21
   5   6   9   21.67    2.82
   5   6   9   23.27    2.76
   5  -6   9   24.59    2.67
   5   6  10   15.18    2.40
   5  -6  10   18.56    2.57
   5  -6  10   16.42    2.19
   5   6  10   16.98    1.93
   5  -6  11  114.41    7.26
   5   6  11   98.45    7.09
   5  -6  11  106.09    6.56
   5   6  11  103.95    6.10
   5   6  12  146.42    9.27
   5  -6  12  149.65    8.46
   5   6  12  140.27    7.95
   5   6  13   19.37    2.65
   5   6  13   16.94    2.61
   5  -6  13   17.48    2.54
   5  -6  13   20.29    2.36
   5   6  14   28.91    3.16
   5  -6  14   28.20    3.18
   5   6  14   30.09    3.35
   5  -6  14   27.72    2.64
   5   6  15   35.13    3.33
   5  -6  15   30.45    2.62
   5   6  16    0.64    0.95
   5   6  17  112.77    6.54
   5   6  17  106.63    6.57
   5  -6  17  124.39    6.52
   5   6  18  264.93    7.52
   5  -6  18  264.95    6.91
   5   6  19  122.35    5.97
  -5   7  23    7.33    1.01
  -5   7  22  157.75    7.38
   5   7 -22  126.99    6.18
  -5   7  21   -0.24    0.36
  -5  -7  21  388.48    6.99
  -5   7  21  316.14    7.35
  -5  -7  21  377.63    6.45
  -5   7  21  363.67    6.13
  -5   7  21    0.11    0.30
   5   7 -21  340.79    5.67
  -5   7  21  378.00    8.59
   5   7 -20    5.44    0.97
  -5   7  20    6.43    1.06
  -5  -7  20    6.02    0.82
   5   7 -19    3.87    0.88
  -5  -7  19    5.89    0.91
  -5   7  19    5.54    0.94
  -5   7  19    6.22    1.13
  -5  -7  18    6.90    1.02
  -5   7  18    6.99    1.16
  -5   7  18    5.75    1.23
  -5   7  17   81.44    5.88
  -5  -7  16    1.49    0.86
  -5  -7  16    1.47    0.98
   5   7 -16    2.03    1.35
  -5   7  16    1.48    1.04
  -5  -7  16   -0.87    0.05
  -5   7  15  484.83   30.23
  -5  -7  15  466.82   24.52
  -5   7  15  429.65   24.90
   5   7 -15  434.84   27.84
  -5   7  15  448.43   26.85
  -5  -7  15  477.78   26.21
   5  -7 -15  505.11   28.76
  -5  -7  15  437.20   30.59
  -5   7  15  507.85   22.53
  -5   7  14  222.08   17.73
  -5  -7  14  190.70   12.86
  -5   7  14  186.37   13.41
   5   7 -14  174.63   15.24
  -5   7  14  222.26   15.59
   5  -7 -14  210.13   16.00
  -5   7  14  213.12   11.27
  -5  -7  14  167.21   17.13
  -5   7  13    0.78    1.27
  -5  -7  13    2.24    1.22
  -5   7  13    0.43    1.00
  -5   7  13    1.09    1.54
   5  -7 -13    2.52    1.63
   5   7 -13    1.34    1.55
  -5   7  13    1.44    0.95
  -5   7  12   63.94    8.65
  -5   7  12   66.06    6.85
   5  -7 -12   60.83    7.59
   5   7 -12   77.52    8.88
  -5   7  12   62.15    7.18
  -5   7  12   65.94    5.04
  -5   7  11   -0.73    1.19
  -5   7  11   -0.38    0.76
  -5   7  11    1.33    0.88
  -5   7  11    0.47    1.33
   5  -7 -11    2.26    1.60
   5   7 -11    3.14    1.77
   5  -7 -11    1.04    0.56
   5  -7 -10    5.29    2.29
   5   7 -10    2.39    1.70
  -5   7  10    3.43    1.58
  -5   7  10    6.77    1.41
  -5   7  10    9.13    3.04
  -5   7  10    5.67    1.91
   5   7 -10    4.32    0.96
   5  -7 -10    4.45    0.89
  -5   7   9    5.41    1.31
   5  -7  -9    6.03    2.16
   5   7  -9    7.30    2.57
  -5   7   9    8.56    2.29
   5   7  -9    6.70    1.12
   5  -7  -9    5.77    1.04
  -5   7   8  173.08    8.89
  -5   7   8  154.66   10.81
   5  -7  -8  147.01    7.69
   5   7  -8  148.19    7.70
   5  -7  -8  158.09   11.59
   5   7  -8  173.26   12.60
  -5   7   7   50.78    5.62
   5  -7  -7   67.93    6.68
   5   7  -7   65.74    7.02
   5  -7  -6  521.51   22.92
   5  -7  -6  518.36   26.45
   5   7  -6  481.33   26.98
   5  -7  -5  285.53   13.68
   5  -7  -5  294.77   16.87
   5   7  -5  288.43   17.57
   5  -7  -4  160.89    8.25
   5  -7  -4  164.61   10.86
   5   7  -4  146.02   11.06
   5   7  -4  149.75    7.53
   5  -7  -3   55.71    3.96
   5   7  -3   61.47    3.61
   5  -7  -3   58.39    5.74
   5   7  -3   54.32    6.01
   5  -7  -2  200.14   10.30
   5   7  -2  210.30    9.83
   5  -7  -2  215.14   12.89
   5   7  -2  185.47   13.05
   5  -7  -2  221.41   10.33
   5  -7  -1    1.30    0.65
   5  -7  -1    1.92    1.05
   5   7  -1    1.94    1.27
   5   7  -1    2.67    0.69
   5  -7   0    9.59    1.61
   5   7   0    9.39    1.74
   5  -7   0    8.00    1.31
   5   7   1    3.95    1.18
   5  -7   1    5.34    1.20
   5  -7   1    6.77    1.21
   5  -7   1    5.79    1.04
   5   7   2  156.89    8.15
   5   7   2  172.36    8.14
   5  -7   2  169.63    9.42
   5   7   2  171.23    9.92
   5   7   3   36.35    2.75
   5   7   3   39.52    2.75
   5   7   3   36.83    2.94
   5  -7   3   39.10    3.67
   5   7   3   38.99    3.95
   5   7   4   77.73    5.11
   5   7   4   89.25    4.83
   5   7   4   82.18    5.17
   5  -7   5  559.71   23.85
   5   7   5  541.41   25.17
   5   7   5  545.83   25.16
   5   7   5  628.18   24.73
   5  -7   6   52.57    3.09
   5   7   6   54.05    3.23
   5   7   6   50.92    4.01
   5   7   6   58.07    3.69
   5   7   7  296.27   13.66
   5  -7   7  312.90   13.51
   5   7   7  318.65   14.27
   5   7   7  301.91   14.97
   5   7   8   36.72    3.41
   5  -7   8   37.68    3.33
   5   7   8   31.75    3.23
   5   7   9   83.71    5.92
   5  -7   9   91.58    5.82
   5  -7   9   89.64    6.02
   5   7   9   82.97    5.94
   5   7  10    2.61    1.14
   5  -7  10    2.54    1.08
   5  -7  10    2.87    1.15
   5   7  10    2.45    1.11
   5   7  11  690.81   31.74
   5  -7  11  711.98   31.23
   5  -7  11  774.10   31.92
   5   7  11  657.43   31.65
   5  -7  12  100.40    6.24
   5  -7  12  108.68    6.62
   5   7  12  116.48    7.34
   5  -7  13   14.67    1.99
   5  -7  14    1.50    0.82
   5   7  14    0.95    1.06
   5  -7  15    6.89    1.23
   5   7  15   10.10    1.78
   5  -7  15    7.87    1.51
   5   7  15    9.62    1.76
   5   7  16   10.13    1.63
   5   7  16    5.45    1.25
   5  -7  16    8.29    1.34
   5   7  17    6.76    1.25
   5   7  17    0.43    0.25
   5   7  18  150.59    7.52
   5   8 -22   90.92    4.55
  -5   8  22  122.57    5.70
  -5   8  21    6.21    0.90
  -5   8  21    4.33    0.94
   5   8 -21    5.13    0.76
  -5   8  21    6.42    1.22
  -5   8  20   52.22    3.88
   5   8 -20   48.92    3.03
  -5   8  20   51.21    3.29
  -5   8  20   41.05    3.35
   5   8 -19   99.95    5.63
  -5   8  19  115.68    6.19
   5  -8 -19  110.25    6.05
  -5  -8  18    7.77    0.98
  -5   8  18    5.26    1.20
   5   8 -18    7.06    1.16
   5   8 -17   21.08    2.09
  -5  -8  17   19.10    1.72
  -5   8  16    8.08    1.76
  -5   8  16   16.63    4.32
   5   8 -16   13.06    1.66
  -5   8  16   14.00    3.40
  -5  -8  15   25.52    6.04
  -5   8  15   28.70    3.19
  -5  -8  15   17.54    3.58
  -5   8  15   27.97    5.94
   5   8 -15   20.53    2.18
  -5   8  15   21.52    4.34
  -5   8  14  637.26   27.98
  -5  -8  14  571.34   37.31
  -5  -8  14  551.10   29.16
  -5   8  14  606.53   36.05
   5   8 -14  611.32   26.41
  -5   8  14  608.51   32.64
  -5   8  13  109.55    7.32
  -5  -8  13  122.12   13.87
  -5  -8  13   95.30    8.05
  -5   8  13  115.82   12.45
   5   8 -13  118.07    6.42
   5   8 -13  101.28   10.37
  -5   8  13  123.23   10.65
  -5   8  12  112.93    7.27
  -5  -8  12   95.70    7.99
  -5   8  12  127.12   12.78
   5   8 -12  110.98    6.23
   5   8 -12  100.85   10.26
  -5   8  12  111.72    9.96
   5  -8 -11   13.67    1.58
  -5   8  11   16.88    3.46
  -5   8  11   11.89    3.91
  -5   8  11    9.54    2.50
   5   8 -11   11.63    1.58
   5   8 -11   15.13    3.34
  -5   8  11   12.36    2.07
   5  -8 -10  300.66   13.87
  -5   8  10  317.86   18.34
  -5   8  10  280.66   21.21
  -5   8  10  294.41   17.95
   5   8 -10  300.42   13.97
   5  -8 -10  310.08   18.71
   5   8 -10  299.20   19.08
  -5   8  10  299.80   15.18
   5  -8  -9   18.01    1.89
  -5   8   9   16.85    3.20
  -5   8   9   23.11    3.85
   5   8  -9   19.13    1.94
   5  -8  -9   24.63    4.05
   5   8  -9   19.77    3.70
  -5   8   9   25.53    2.81
   5  -8  -8  254.87   11.86
  -5   8   8  272.17   15.34
  -5   8   8  230.90   15.40
   5   8  -8  243.01   11.75
   5   8  -8  241.13   16.10
   5  -8  -8  273.16   16.07
  -5   8   8  253.88   12.97
  -5   8   7   26.45    4.20
  -5   8   7   29.20    3.80
   5   8  -7   21.21    1.99
   5  -8  -7   23.51    3.77
   5   8  -7   25.41    4.16
   5  -8  -6  135.41    7.17
   5  -8  -6  135.37    6.94
   5   8  -6  113.22    6.09
   5  -8  -6  131.48    9.52
   5   8  -6  127.02    9.84
   5   8  -6  105.30    6.05
   5  -8  -5    6.73    1.29
   5  -8  -5    4.61    1.06
   5   8  -5    2.77    1.46
   5  -8  -5    5.47    1.73
   5   8  -5    4.01    0.85
   5  -8  -4  182.15    9.33
   5  -8  -4  181.56   11.43
   5   8  -4  182.36    8.59
   5  -8  -3    9.22    1.48
   5  -8  -3    9.46    2.23
   5   8  -3    5.31    1.67
   5   8  -3    9.23    1.20
   5  -8  -2   18.46    2.07
   5   8  -2   16.59    1.68
   5  -8  -2   17.34    2.80
   5   8  -2   12.82    2.62
   5   8  -1   35.69    3.42
   5  -8  -1   40.66    3.16
   5  -8  -1   34.48    3.11
   5   8  -1   40.19    2.79
   5  -8  -1   37.90    2.76
   5  -8  -1   31.53    2.96
   5  -8   0  627.84   29.22
   5  -8   0  723.49   29.13
   5   8   0  660.48   29.85
   5   8   0  641.19   28.40
   5  -8   0  654.02   29.16
   5  -8   0  691.74   28.64
   5  -8   1    2.66    0.87
   5   8   1    2.37    0.98
   5   8   1    3.73    0.84
   5  -8   1    2.89    0.86
   5   8   2   64.40    3.87
   5   8   2   55.77    4.74
   5  -8   2   63.67    4.70
   5   8   3    3.88    0.81
   5   8   3    2.88    0.65
   5   8   3    2.96    0.83
   5   8   4  415.16   17.73
   5   8   4  421.13   18.15
   5   8   4  377.76   18.40
   5   8   5  216.63   10.10
   5   8   5  192.63   10.41
   5   8   6    6.46    1.25
   5   8   6    7.62    1.22
   5   8   6    4.54    1.22
   5   8   7   26.18    2.78
   5   8   7   27.99    2.48
   5   8   7   25.22    2.68
   5   8   8    1.38    0.80
   5   8   8    2.20    0.89
   5   8   8    2.60    1.03
   5   8   9  289.00   13.40
   5  -8   9  279.49   13.85
   5   8   9  262.79   14.02
   5   8  10  196.79    9.88
   5  -8  10  186.62   10.21
   5   8  10  190.67   10.66
   5  -8  11    1.85    0.97
   5   8  11    3.36    1.06
   5   8  11    1.84    1.11
   5  -8  12  631.85   26.20
   5   8  12  581.34   26.45
   5   8  12  622.12   26.88
   5  -8  13    5.94    1.35
   5  -8  13    5.28    1.11
   5   8  13    8.27    1.60
   5   8  14  103.50    6.53
   5  -8  14  112.18    6.29
   5   8  15    0.14    0.16
   5  -8  15    6.01    1.11
   5  -8  16    0.16    0.34
   5   8  16  102.87    4.53
   5   8  17   10.15    1.45
   5   8  18   27.61    2.14
  -5   9  22   20.65    1.76
  -5   9  21  319.04   13.44
  -5   9  21  320.59   12.71
  -5   9  20  141.25    7.67
   5   9 -20  127.78    6.56
  -5   9  20  136.84    7.18
   5  -9 -19   25.07    2.22
   5   9 -19   25.93    2.07
  -5   9  19   22.81    2.26
  -5   9  19   28.48    2.48
  -5   9  18    7.27    1.32
  -5   9  18    9.14    1.48
   5   9 -18    8.81    1.24
   5  -9 -18   10.10    1.43
   5   9 -17   41.49    3.09
   5  -9 -17   49.92    3.54
  -5   9  17   39.96    3.36
   5   9 -16  177.52    9.18
   5  -9 -16  194.59    9.69
  -5   9  15  348.91   24.93
   5   9 -15  360.06   16.17
  -5   9  15  349.01   21.72
  -5  -9  15  311.61   19.71
  -5   9  15  370.73   17.74
  -5  -9  15  338.36   25.41
  -5   9  14   69.85    7.98
  -5   9  14   73.57   10.09
   5   9 -14   73.71    4.70
   5   9 -14   71.20    4.09
  -5   9  14   81.19    5.91
  -5  -9  14   85.64   11.36
  -5   9  13   34.25    5.37
  -5   9  13   33.94    6.60
   5   9 -13   36.27    3.01
   5   9 -13   37.54    2.60
  -5  -9  13   41.28    7.86
  -5   9  13   39.82    3.93
  -5   9  12   14.67    4.40
  -5   9  12   17.62    3.55
   5   9 -12   17.45    1.97
  -5  -9  12   25.94    6.38
  -5   9  12   18.19    2.65
  -5   9  12   14.93    3.56
  -5   9  11    0.93    1.08
  -5   9  11    0.85    1.71
  -5   9  11    1.93    1.37
   5   9 -11    1.74    0.77
  -5   9  11    2.66    1.03
   5  -9 -11    3.20    0.85
   5  -9 -10   85.92    4.88
  -5   9  10   78.37    7.60
  -5   9  10   77.13   10.12
  -5   9  10   62.21    7.26
   5   9 -10   76.47    4.79
  -5   9  10   81.53    5.91
   5   9 -10   73.55    4.32
   5  -9  -9   50.98    3.88
   5   9  -9   51.49    3.27
   5  -9  -9   50.01    3.55
  -5   9   9   50.49    5.72
  -5   9   9   49.99    6.17
   5   9  -9   48.79    3.49
  -5   9   9   50.85    4.40
  -5   9   9   50.71    3.46
  -5   9   8  372.14   20.34
  -5   9   8  395.28   22.18
   5   9  -8  365.61   16.53
   5  -9  -8  411.01   17.68
   5   9  -8  362.14   16.91
  -5   9   7    6.17    1.81
  -5   9   7    5.36    2.12
   5   9  -7    5.90    0.96
   5   9  -7    5.99    1.09
   5  -9  -7    7.37    1.42
   5   9  -6  172.53    8.57
   5  -9  -6  200.34    9.85
   5   9  -6  170.40    8.73
   5  -9  -6  185.70    9.46
  -5   9   6  176.08   11.09
   5   9  -5   21.12    1.88
   5  -9  -5   23.20    2.49
   5   9  -5   18.26    1.83
   5  -9  -5   22.08    2.32
  -5   9   5   18.68    2.77
   5   9  -4   43.28    3.01
  -5   9   4   41.45    4.13
   5  -9  -4   51.49    3.80
   5   9  -4   38.54    2.85
   5  -9  -4   47.58    3.61
  -5   9   3  143.78    8.87
   5   9  -3  158.38    7.72
   5  -9  -3  156.66    8.48
   5   9  -3  150.99    7.54
   5  -9  -2  287.17   13.62
   5   9  -2  313.60   13.75
   5  -9  -2  315.65   14.63
   5   9  -2  291.55   13.42
   5  -9  -1  191.60    9.63
   5   9  -1  201.22    9.37
   5   9  -1  202.70    9.67
   5  -9  -1  199.30   10.38
   5  -9   0   17.04    1.89
   5  -9   0   19.94    2.22
   5   9   0   16.43    1.61
   5   9   0   17.56    1.83
   5   9   0   19.66    1.83
   5  -9   0   17.13    2.18
   5   9   1    1.78    0.53
   5  -9   1    0.50    0.54
   5   9   1    1.14    0.64
   5   9   1    1.18    0.54
   5   9   2    1.74    0.67
   5   9   2    2.32    0.62
   5   9   3    1.54    0.58
   5   9   3    1.12    0.66
   5   9   3    2.89    0.77
   5   9   4  389.72   16.85
   5   9   4  387.35   16.47
   5   9   5  502.88   21.43
   5   9   5  459.31   21.72
   5   9   6  312.86   13.90
   5   9   6  271.46   14.17
   5   9   7  115.59    6.39
   5   9   7  103.77    6.74
   5   9   8   -0.14    0.73
   5   9   8    1.30    0.89
   5   9   9   64.72    4.31
   5   9   9   52.21    4.52
   5   9  10   90.13    5.43
   5  -9  10   83.81    5.64
   5   9  10   78.45    5.80
   5   9  11  396.19   17.44
   5  -9  11  363.58   17.57
   5   9  11  357.47   18.05
   5  -9  12   44.90    3.63
   5  -9  12   36.90    3.33
   5   9  12   46.85    3.52
   5   9  12   48.65    4.11
   5   9  13  126.68    7.54
   5  -9  13  114.72    6.55
   5  -9  13  120.21    6.86
   5  -9  14   10.07    1.51
   5   9  14   11.33    1.87
   5  -9  15    6.33    1.11
   5  -9  16   44.01    2.76
  -5  10  21   62.14    3.05
  -5  10  21   61.99    3.48
   5  10 -20    0.16    0.36
  -5  10  20    0.25    0.55
  -5  10  20    0.94    0.49
  -5  10  19  156.41    7.63
   5  10 -19  137.29    6.89
  -5  10  19  148.44    8.04
  -5  10  19  147.45    7.45
  -5  10  18    5.22    1.15
  -5  10  18    3.64    0.96
   5 -10 -18    4.99    0.99
   5  10 -18    5.12    0.92
   5 -10 -17    0.49    0.62
  -5  10  17    0.38    0.49
   5  10 -17    0.97    0.57
  -5  10  16   45.33    3.54
   5 -10 -16   51.59    3.69
   5  10 -16   47.47    3.33
  -5  10  15   26.18    2.51
   5  10 -15   24.04    2.28
  -5  10  15   22.67    2.98
   5 -10 -15   26.34    2.58
  -5  10  14    3.14    1.71
  -5  10  14    3.57    2.06
   5  10 -14    6.65    1.19
  -5  10  14    2.96    1.32
  -5 -10  14    4.92    2.54
  -5  10  14    2.25    0.79
   5 -10 -14    3.17    1.00
  -5  10  13   64.67    4.45
  -5  10  13   61.86    7.24
   5  10 -13   70.59    4.44
  -5  10  13   65.03    5.39
  -5 -10  13   58.47    9.56
   5 -10 -13   69.88    4.75
  -5  10  12    6.73    1.23
   5 -10 -12    4.59    1.19
  -5  10  12    4.35    2.02
  -5  10  12    7.21    2.24
   5  10 -12    5.55    1.14
  -5  10  12    7.28    1.77
  -5 -10  12    5.25    3.21
   5  10 -12    5.40    0.91
   5  10 -11   28.36    2.21
  -5  10  11   29.86    2.64
  -5  10  11   28.12    4.41
  -5  10  11   24.35    4.39
   5  10 -11   27.61    2.54
  -5  10  11   33.16    3.61
   5 -10 -11   30.32    2.91
   5 -10 -10   18.25    2.24
   5  10 -10   16.38    1.62
   5 -10 -10   18.20    1.98
  -5  10  10   14.32    3.20
  -5  10  10   23.10    4.18
   5  10 -10   19.98    2.08
  -5  10  10   21.63    2.87
  -5 -10  10   13.39    4.51
  -5  10  10   19.98    2.01
   5  10  -9  135.51    6.93
   5 -10  -9  146.00    7.54
  -5  10   9  127.41   10.05
  -5  10   9  128.31   11.36
   5  10  -9  139.77    7.44
  -5  10   9  136.40    8.71
  -5 -10   9  129.74   14.69
   5 -10  -9  150.96    8.06
  -5  10   8  840.96   42.60
  -5  10   8  966.86   46.08
   5  10  -8  891.81   38.88
   5 -10  -8 1045.41   40.38
   5  10  -8  936.81   39.46
  -5  10   7  288.91   16.99
  -5  10   7  310.58   19.83
   5  10  -7  317.25   14.12
   5 -10  -7  338.10   15.29
   5  10  -7  304.28   14.41
  -5  10   6    5.58    1.61
   5 -10  -6    7.61    1.46
   5  10  -6    6.70    1.08
   5  10  -6    5.71    1.06
   5 -10  -6    7.85    1.55
   5  10  -5   47.70    3.20
   5 -10  -5   51.76    4.05
   5  10  -5   44.35    3.26
   5 -10  -5   50.82    3.92
  -5  10   5   47.18    4.60
   5 -10  -4   17.71    2.30
   5 -10  -4   19.52    2.35
   5  10  -4   19.43    1.87
   5  10  -4   21.58    1.98
   5 -10  -3  299.16   13.86
   5  10  -3  269.68   12.81
   5  10  -3  279.07   12.86
   5 -10  -3  275.58   13.81
   5 -10  -2 1202.98   50.63
   5 -10  -2 1248.05   51.55
   5  10  -2 1187.80   50.47
   5  10  -2 1209.56   50.65
   5 -10  -2 1259.26   51.75
   5 -10  -1    2.07    0.76
   5  10  -1    1.48    0.63
   5  10  -1    1.56    0.71
   5 -10  -1    2.56    1.01
   5  10  -1    1.57    0.68
   5 -10   0   19.90    2.07
   5  10   0   19.46    1.88
   5  10   0   21.94    2.11
   5  10   0   20.97    1.95
   5 -10   0   20.10    2.46
   5 -10   1    1.05    0.74
   5  10   1    0.60    0.47
   5  10   1    0.52    0.43
   5  10   1    1.57    0.72
   5  10   2    4.13    0.86
   5  10   2    3.12    0.80
   5  10   3   77.31    4.47
   5  10   3   84.24    4.74
   5  10   4    4.61    0.99
   5  10   4    3.55    0.97
   5  10   4    3.45    0.79
   5  10   5  305.44   13.45
   5  10   5  258.01   13.48
   5  10   6   22.28    2.22
   5  10   6   16.41    2.15
   5  10   7  103.67    5.84
   5  10   7   85.47    5.95
   5  10   8    4.83    1.12
   5 -10   8    5.01    1.31
   5  10   8    4.94    1.37
   5  10   9   52.69    3.90
   5  10   9   52.18    4.31
   5  10  10   65.32    4.43
   5  10  10   58.71    4.77
   5  10  11   39.73    3.17
   5  10  11   32.17    3.34
   5 -10  11   36.28    3.27
   5  10  12   17.67    2.41
   5 -10  12   18.30    2.15
   5 -10  12   20.44    2.27
   5  10  13    5.18    1.34
   5 -10  13    5.02    1.10
   5 -10  13    6.32    1.30
   5 -10  14   45.96    3.37
   5  10  14   52.68    3.99
   5 -10  15    5.65    0.98
   5  10  15    7.55    1.37
   5 -10  16   69.49    3.88
   5  10  16   88.77    4.79
  -5  11  20   34.77    2.27
  -5  11  20   33.98    2.52
   5  11 -19    0.75    0.39
  -5  11  19    0.30    0.50
  -5  11  19    0.26    0.58
  -5  11  18    1.92    0.81
  -5  11  18    1.17    0.54
   5  11 -18    1.37    0.53
  -5  11  18    0.61    0.81
   5 -11 -17   53.36    3.52
   5  11 -17   49.10    3.20
  -5  11  17   48.51    3.40
  -5  11  17   49.28    3.80
  -5  11  16   30.20    2.62
   5 -11 -16   34.54    2.80
   5  11 -16   30.21    2.45
  -5  11  15    0.63    0.60
   5 -11 -15    2.47    0.91
   5  11 -15    1.91    0.71
  -5  11  14    7.52    1.27
   5 -11 -14    6.74    1.37
  -5  11  14    7.41    1.73
   5  11 -14    8.54    1.32
  -5  11  13  303.94   14.71
   5  11 -13  316.82   14.62
  -5  11  13  332.76   16.44
   5 -11 -13  329.82   15.19
  -5  11  12    1.38    1.19
   5  11 -12    0.25    0.53
  -5  11  12    1.20    1.21
   5 -11 -12    0.32    0.86
  -5  11  12    0.13    0.56
   5 -11 -11    2.45    1.00
  -5  11  11    4.06    0.99
  -5  11  11    1.31    1.34
  -5  11  11    2.26    1.73
   5  11 -11    2.39    0.88
  -5  11  11    4.63    1.47
   5  11 -11    2.47    0.67
   5  11 -10   53.64    3.42
   5 -11 -10   64.55    4.07
  -5  11  10   48.30    5.81
  -5  11  10   53.56    8.70
  -5  11  10   59.17    7.29
   5  11 -10   48.35    3.75
  -5  11  10   61.32    5.22
  -5 -11  10   73.99   10.60
   5 -11 -10   64.08    4.51
   5  11  -9  259.75   12.22
   5 -11  -9  277.18   12.97
  -5  11   9  238.47   15.62
  -5  11   9  271.76   18.40
   5  11  -9  270.29   12.87
  -5  11   9  283.48   14.66
  -5 -11   9  233.53   21.28
   5 -11  -9  295.93   13.66
   5 -11  -8   54.19    4.18
  -5  11   8   49.48    5.34
  -5  11   8   58.72    7.29
   5  11  -8   57.32    3.85
  -5 -11   8   54.29    8.93
   5  11  -8   48.39    3.27
   5 -11  -7   39.79    3.52
  -5  11   7   36.30    4.34
  -5  11   7   35.73    5.80
   5  11  -7   38.37    2.77
   5  11  -7   41.01    3.13
  -5 -11   7   43.56    7.81
   5 -11  -6    7.13    1.54
  -5 -11   6    8.12    3.47
   5  11  -6    8.10    1.18
  -5  11   6    7.85    2.89
   5  11  -6    9.35    1.37
   5 -11  -6   10.29    1.76
   5  11  -5   40.26    3.01
   5 -11  -5   49.23    3.96
   5 -11  -5   48.52    4.00
   5  11  -5   44.90    3.29
  -5 -11   5   50.52    8.05
   5  11  -4   82.06    5.02
   5 -11  -4   91.42    5.84
   5  11  -4   83.13    4.89
   5 -11  -4   89.01    5.87
   5 -11  -3   35.81    3.36
   5  11  -3   33.40    2.73
   5 -11  -3   31.67    3.15
   5  11  -3   35.60    2.73
  -5 -11   3   39.75    6.69
   5 -11  -2   60.88    4.69
   5  11  -2   63.84    3.87
   5 -11  -2   64.94    4.75
   5  11  -2   66.84    4.09
   5  11  -2   56.46    3.91
  -5 -11   2   59.76    8.15
   5 -11  -1  979.10   42.57
   5  11  -1 1020.12   41.27
   5  11  -1  997.98   41.44
   5 -11  -1  938.36   41.44
   5  11  -1  996.75   41.52
  -5 -11   1  888.37   48.93
   5 -11   0  140.16    7.75
   5  11   0  152.85    7.68
   5  11   0  157.59    7.60
   5  11   0  144.88    7.71
   5 -11   0  138.44    8.45
   5  11   1    2.92    0.81
   5 -11   1    2.87    0.92
   5  11   1    2.11    0.70
   5 -11   1    2.07    1.05
   5  11   2   18.05    1.86
   5 -11   2   18.88    2.19
   5  11   2   19.94    1.94
   5  11   3  421.10   18.55
   5  11   3  407.44   18.39
   5  11   4    1.57    0.68
   5  11   4    0.53    0.63
   5  11   4    1.76    0.69
   5  11   5  208.74    9.65
   5  11   5  167.96    9.54
   5  11   6   34.22    2.80
   5  11   6   25.97    2.74
   5  11   7  153.12    7.88
   5  11   7  133.79    8.03
   5  11   8    0.96    0.67
   5 -11   8    0.51    0.90
   5  11   8    1.57    0.90
   5  11   9   28.50    2.60
   5 -11   9   22.10    2.63
   5  11   9   21.11    2.58
   5  11  10    8.46    1.45
   5  11  10    9.15    1.71
   5 -11  11    1.73    0.95
   5  11  11    1.98    0.82
   5  11  11    2.28    1.02
   5 -11  12   55.61    4.01
   5 -11  12   53.88    3.97
   5  11  12   60.56    4.43
   5 -11  13  304.02   13.61
   5 -11  13  264.45   13.23
   5  11  13  307.02   14.17
   5 -11  14   10.92    1.40
   5  11  14   11.80    1.67
   5 -11  15  237.46   11.05
   5  11  15  258.11   11.76
   5  11  16   21.16    1.88
  -5  12  20    4.13    0.74
  -5  12  20    5.60    0.76
  -5  12  19  136.01    6.85
   5  12 -19  115.11    5.85
  -5  12  18  116.25    5.95
   5  12 -18   98.66    5.13
  -5  12  18  112.77    6.25
  -5  12  17   13.85    1.69
  -5  12  17   12.00    1.83
  -5  12  17   12.15    1.38
   5  12 -17   11.94    1.28
  -5  12  16    0.40    0.51
   5 -12 -16    0.43    0.61
   5  12 -16   -0.08    0.48
   5 -12 -15  201.34   10.02
  -5  12  15  194.49    9.74
   5  12 -15  208.11    9.67
  -5  12  14    0.69    0.55
   5 -12 -14    0.82    0.71
   5  12 -14    0.63    0.56
   5 -12 -13   26.36    2.64
   5  12 -13   27.92    2.44
  -5  12  13   26.27    2.40
  -5  12  13   31.19    3.49
   5  12 -12    2.02    0.78
  -5  12  12    2.38    1.48
  -5  12  12    2.76    0.81
   5 -12 -12    1.56    0.99
   5 -12 -11   41.52    3.57
  -5  12  11   46.70    6.31
  -5  12  11   48.81    8.01
   5  12 -11   42.58    3.27
  -5 -12  11   43.56    8.04
  -5  12  11   44.78    4.36
   5 -12 -10    1.13    0.67
  -5  12  10    0.75    0.96
  -5 -12  10    2.03    2.03
   5  12 -10    0.74    0.47
  -5  12  10    0.95    1.91
  -5  12  10    1.22    0.99
   5  12 -10    1.13    0.67
   5 -12 -10    1.34    0.89
   5  12  -9  477.10   21.51
   5 -12  -9  522.73   23.02
   5 -12  -9  506.49   22.33
  -5  12   9  436.82   31.57
  -5  12   9  497.53   28.84
   5  12  -9  508.89   22.29
  -5 -12   9  538.42   34.14
  -5  12   9  536.81   24.45
   5 -12  -8  369.05   16.83
  -5 -12   8  345.38   25.84
  -5  12   8  366.57   22.61
   5  12  -8  352.84   16.01
   5  12  -8  327.80   15.30
   5 -12  -7  145.91    8.36
  -5 -12   7  132.43   14.42
  -5  12   7  144.44   12.71
   5  12  -7  158.43    7.90
   5  12  -7  136.02    7.18
   5  12  -6   66.50    4.13
   5 -12  -6   69.95    5.05
   5 -12  -6   79.48    5.42
  -5  12   6   65.18    8.24
   5  12  -6   70.53    4.57
  -5 -12   6   71.38    9.92
   5 -12  -5   66.12    4.83
   5  12  -5   54.73    3.96
   5 -12  -5   62.99    4.68
   5  12  -5   58.32    3.75
  -5 -12   5   55.82    8.81
   5 -12  -4  162.03    8.85
   5  12  -4  142.53    7.80
   5 -12  -4  144.39    8.51
   5  12  -4  148.25    7.57
  -5 -12   4  155.47   14.73
   5 -12  -3   17.78    2.36
   5  12  -3   15.65    1.62
   5  12  -3   18.15    1.85
  -5 -12   3   18.73    4.56
   5  12  -3   16.84    1.89
   5  12  -2  351.25   15.43
   5 -12  -2  361.35   16.93
   5  12  -2  331.07   15.76
   5  12  -2  345.73   15.68
  -5 -12   2  317.67   22.61
   5 -12  -1  470.05   21.76
   5 -12  -1  522.98   23.11
   5  12  -1  506.73   21.53
   5  12  -1  489.82   21.89
   5 -12   0   58.88    4.14
   5 -12   0   64.82    4.92
   5  12   0   66.72    4.00
   5  12   0   61.62    4.13
   5 -12   1   25.29    2.54
   5 -12   1   33.87    3.35
   5  12   1   27.25    2.33
   5  12   1   27.56    2.48
   5 -12   2   14.38    1.89
   5  12   2   14.09    1.70
   5  12   2   16.56    1.74
   5 -12   2    9.79    1.89
   5  12   3    0.83    0.60
   5  12   3    1.49    0.62
   5 -12   3    2.47    0.96
   5  12   4    6.19    1.11
   5 -12   4    6.42    1.39
   5  12   4    5.70    1.11
   5 -12   5  335.80   15.08
   5  12   5  339.04   14.43
   5  12   6   17.19    2.05
   5 -12   6   15.34    2.16
   5  12   6   20.77    2.10
   5 -12   7   68.17    4.80
   5  12   7   72.04    4.45
   5  12   8  120.73    7.55
   5 -12   8  141.00    7.91
   5  12   8  146.62    7.50
   5  12   9  171.51    9.60
   5 -12   9  184.92    9.72
   5  12   9  188.21    9.35
   5  12  10    6.30    1.20
   5 -12  10    4.47    1.21
   5 -12  10    3.99    1.26
   5  12  10    5.29    1.38
   5 -12  11   27.90    2.71
   5  12  11   28.87    2.79
   5 -12  12    2.48    0.83
   5  12  12    3.74    1.08
   5 -12  13    0.87    0.51
   5  12  13    0.51    0.58
   5 -12  13    1.46    0.75
   5  12  14    2.18    0.79
   5 -12  14    1.68    0.69
   5  12  15  162.83    7.56
   5 -12  15  146.63    7.07
  -5  13  19   14.59    1.45
  -5  13  19   19.09    1.50
  -5  13  18   20.18    1.92
   5  13 -18   15.97    1.29
  -5  13  18   22.27    1.84
   5  13 -17   28.06    1.99
  -5  13  17   30.51    2.71
  -5  13  17   35.88    2.67
   5  13 -16  259.29   12.00
  -5  13  16  293.37   13.03
   5 -13 -15  322.45   14.20
   5  13 -15  301.78   13.84
   5 -13 -14   10.66    1.46
   5  13 -14    9.44    1.28
   5  13 -13   12.40    1.51
   5 -13 -13   14.88    1.82
  -5  13  13   14.77    2.29
   5  13 -12  103.35    5.93
   5 -13 -12  109.50    6.41
  -5  13  12  118.12    7.58
   5  13 -11   62.97    4.22
  -5  13  11   64.95    5.48
   5 -13 -11   72.76    4.79
   5 -13 -10   48.30    3.84
  -5  13  10   43.56    7.57
   5  13 -10   45.10    3.39
  -5 -13  10   58.98    9.26
  -5  13  10   52.52    4.80
   5 -13 -10   43.68    3.33
   5 -13  -9   19.24    2.10
   5 -13  -9   18.85    2.32
  -5  13   9   21.73    5.28
  -5  13   9   15.26    3.67
   5  13  -9   16.94    1.61
  -5 -13   9   18.35    5.04
  -5  13   9   20.51    2.93
   5  13  -9   16.95    1.97
   5 -13  -8  117.95    7.06
  -5  13   8  101.74   12.65
  -5  13   8  107.52   10.95
   5  13  -8  112.46    5.93
  -5 -13   8   95.06   12.36
  -5  13   8  128.88    8.21
   5  13  -8  119.43    6.57
   5 -13  -7   92.75    5.95
  -5  13   7   71.15    8.95
   5  13  -7   87.63    4.88
   5  13  -7   89.95    5.42
  -5 -13   7   83.21   10.94
   5  13  -6    0.90    0.44
  -5 -13   6    0.89    1.46
   5  13  -6    1.34    0.64
  -5  13   6    1.99    1.32
   5  13  -6    0.53    0.62
   5 -13  -6    0.71    0.87
   5  13  -5   23.83    1.94
   5 -13  -5   31.77    3.17
   5 -13  -5   25.64    2.89
   5  13  -5   24.47    2.15
  -5  13   5   20.73    4.74
   5  13  -5   28.20    2.57
  -5 -13   5   29.01    6.16
   5  13  -4   11.99    1.63
   5  13  -4   13.10    1.53
   5 -13  -4   12.94    2.05
   5  13  -4   11.01    1.27
  -5 -13   4   10.54    3.54
   5  13  -3  268.18   12.80
   5  13  -3  255.11   12.04
  -5 -13   3  240.87   19.31
   5  13  -2  202.91   10.26
   5 -13  -2  218.53   11.24
   5  13  -2  201.06    9.63
   5  13  -1   41.08    3.23
   5  13  -1   40.97    2.85
   5 -13  -1   39.21    3.72
   5  13   0   74.04    4.74
   5  13   0   74.53    4.36
   5 -13   0   78.24    5.57
   5 -13   0   71.16    4.66
   5 -13   1    0.41    0.72
   5  13   1    1.68    0.72
   5 -13   1    0.40    0.79
   5  13   1    1.31    0.58
   5  13   2  115.26    6.47
   5  13   2  120.67    6.28
   5 -13   2  117.10    7.42
   5 -13   2  110.65    6.64
   5  13   3    3.57    0.92
   5 -13   3    1.01    0.97
   5  13   3    1.84    0.70
   5 -13   3    1.20    0.80
   5  13   4    6.48    1.18
   5  13   4    4.82    1.04
   5 -13   4    5.43    1.30
   5  13   5  384.15   17.01
   5 -13   5  364.06   17.53
   5  13   6  513.34   20.51
   5 -13   6  497.47   21.13
   5  13   7    0.92    0.57
   5 -13   7    1.41    1.02
   5  13   7    1.07    0.63
   5  13   8   47.80    3.79
   5 -13   8   60.57    4.28
   5  13   8   57.32    3.80
   5 -13   8   55.32    4.45
   5  13   9   46.90    3.66
   5 -13   9   47.33    3.77
   5  13   9   56.83    3.67
   5 -13   9   51.11    4.09
   5 -13  10  302.77   14.48
   5 -13  10  295.80   14.18
   5  13  10  301.13   14.16
   5 -13  11  203.42   10.22
   5 -13  11  214.34   10.18
   5  13  11  196.51   10.09
   5 -13  12   71.89    4.43
   5  13  12   74.39    4.51
   5 -13  13    3.52    0.73
   5  13  13    2.57    0.73
   5 -13  13    2.45    0.78
   5  13  14    0.66    0.42
   5 -13  14    0.20    0.39
  -5  14  18   23.86    1.95
  -5  14  18   30.91    2.00
  -5  14  17   63.36    3.75
   5  14 -17   51.86    2.85
  -5  14  16    1.15    0.68
   5  14 -16    0.75    0.38
   5  14 -15   81.94    4.35
   5  14 -14  145.07    7.10
   5  14 -13  238.53   11.04
  -5  14  12   86.57    6.22
   5  14 -12   86.84    5.06
   5 -14 -12   95.75    5.46
  -5  14  11  118.19    7.66
   5  14 -11  113.88    6.13
   5 -14 -11  106.97    6.40
   5 -14 -10  115.79    6.69
   5 -14 -10  109.96    6.15
  -5  14  10  116.26    7.75
   5  14 -10  116.40    6.33
   5 -14  -9   22.32    2.48
   5  14  -9   19.94    2.10
  -5  14   9   22.78    3.08
   5 -14  -9   19.90    2.09
   5  14  -8   34.64    2.92
   5 -14  -8   36.07    3.00
   5  14  -7   35.73    2.94
  -5  14   7   33.44    6.49
  -5  14   7   34.70    5.67
  -5 -14   7   27.84    5.85
   5  14  -6    3.31    0.96
  -5  14   6    3.30    1.71
  -5 -14   6    3.37    1.95
  -5  14   5   17.22    4.14
   5  14  -5   20.73    2.21
  -5 -14   5   25.89    5.52
   5 -14  -5   24.37    2.77
  -5  14   4    1.32    1.53
   5  14  -4    1.08    0.71
   5 -14  -4    1.66    0.93
  -5 -14   4    1.54    1.26
   5  14  -3   22.12    1.86
   5  14  -3   25.34    2.44
   5 -14  -2   25.87    2.87
   5  14  -2   24.99    1.97
   5  14  -2   24.04    2.43
   5 -14  -1    6.24    1.56
   5  14  -1    5.53    0.91
   5  14  -1    5.47    1.16
   5 -14   0   96.31    5.76
   5 -14   0  115.83    6.96
   5  14   0  104.00    6.04
   5  14   0  101.42    5.43
   5 -14   1   57.23    3.90
   5 -14   1   55.90    4.54
   5  14   1   52.87    3.83
   5  14   1   54.49    3.45
   5 -14   2  155.58    8.19
   5 -14   2  162.89    9.05
   5  14   2  154.44    8.04
   5  14   2  144.87    7.53
   5 -14   3  157.82    8.36
   5 -14   3  161.32    9.12
   5  14   3  150.83    8.02
   5  14   3  153.30    7.72
   5 -14   4  154.38    8.60
   5 -14   4  180.13    9.60
   5  14   4  163.25    8.33
   5  14   4  160.06    8.07
   5  14   5   74.48    4.50
   5 -14   5   77.00    5.05
   5 -14   5   83.06    5.69
   5  14   6   18.75    1.84
   5 -14   6   18.81    2.23
   5 -14   6   18.02    2.45
   5 -14   7    6.34    1.30
   5  14   7    5.24    1.01
   5  14   8   47.14    3.25
   5 -14   8   48.53    3.64
   5 -14   9  128.05    5.24
   5 -14   9  136.50    4.96
   5 -14  10    6.11    1.14
   5 -14  10    4.25    1.12
   5 -14  11    4.68    1.04
   5 -14  11    4.70    1.06
   5 -14  12  240.03   10.85
   5 -14  12  228.58   10.79
   5 -14  13  191.45    8.65
  -5  15  17   82.39    4.06
  -5  15  17   75.13    4.15
  -5  15  16   25.00    1.88
   5  15 -16   22.00    1.50
  -5  15  16   24.27    2.07
  -5  15  15   11.05    1.31
   5  15 -15    9.01    0.97
  -5  15  15   10.81    1.45
   5  15 -14   65.92    3.65
  -5  15  14   68.34    4.13
   5  15 -13    1.37    0.59
   5  15 -12   64.42    3.83
   5  15 -11   26.67    2.25
  -5  15  11   33.00    3.35
   5  15 -10    0.82    0.53
  -5  15  10    1.67    1.16
   5  15  -9   49.88    3.46
  -5  15   9   49.20    4.46
   5 -15  -9   50.18    3.41
   5  15  -8  113.28    6.20
  -5  15   8  112.86    7.64
   5 -15  -8  108.39    6.15
   5  15  -7    0.48    0.61
  -5  15   7    0.92    1.09
   5  15  -6  102.53    5.94
   5  15  -5  908.31   38.64
   5 -15  -4  127.26    7.41
   5  15  -4  118.33    6.78
   5 -15  -3    4.17    1.33
   5  15  -3    5.76    1.17
   5 -15  -2   40.74    3.59
   5  15  -2   35.35    3.03
   5 -15  -1    2.13    1.05
   5  15  -1    2.53    0.83
   5  15   0    5.98    1.19
   5  15   0    6.81    0.95
   5 -15   0    7.16    1.57
   5  15   1   88.86    5.29
   5  15   1   87.34    4.67
   5 -15   1   83.67    5.07
   5 -15   1   91.06    5.95
   5  15   2  159.80    8.08
   5  15   2  146.51    7.41
   5 -15   2  156.45    8.03
   5 -15   2  161.59    8.92
   5  15   3   18.43    1.89
   5  15   3   14.86    1.52
   5 -15   3   16.69    1.94
   5 -15   3   21.13    2.55
   5  15   4  155.10    7.62
   5 -15   4  159.51    8.26
   5 -15   4  159.63    8.94
   5  15   5   31.01    2.32
   5 -15   5   33.54    2.84
   5 -15   5   31.99    3.19
   5  15   6   25.87    2.10
   5 -15   6   27.53    2.55
   5 -15   6   31.85    3.07
   5  15   7  224.56   10.69
   5 -15   7  245.38   11.96
   5 -15   7  242.42   11.41
   5 -15   8   29.99    2.58
   5 -15   9  120.25    6.74
   5 -15   9  120.60    6.44
   5 -15  10    2.20    0.77
   5 -15  10    1.32    0.71
   5 -15  11   42.16    2.91
   5 -15  11   42.50    2.80
   5 -15  12   85.30    4.61
   5 -15  12   97.94    4.72
  -5  16  15    2.50    0.62
   5  16 -15    1.27    0.34
  -5  16  15    3.12    0.55
  -5  16  14   22.47    1.80
  -5  16  14   27.50    2.29
   5  16 -14   24.22    1.63
  -5  16  13   12.68    1.33
   5  16 -13   10.96    1.10
  -5  16  12  100.78    5.49
   5  16 -12  106.13    5.26
   5  16 -11   23.27    1.89
  -5  16  10   42.91    3.80
   5  16 -10   42.03    2.87
  -5  16   9    0.57    0.87
   5  16  -9    1.03    0.53
  -5  16   8    5.92    1.57
   5 -16  -8    4.23    0.92
   5  16  -8    3.52    0.89
  -5  16   7  193.64   11.07
   5 -16  -7  198.92    9.74
   5  16  -7  204.32    9.75
   5  16  -6  151.99    7.83
   5  16  -5    1.30    0.73
   5  16  -4  306.88   14.26
   5 -16  -3  113.86    6.69
   5  16  -3  109.20    6.22
   5 -16  -2   25.69    2.67
   5  16  -2   27.07    2.45
   5 -16  -1   11.56    1.79
   5  16  -1    7.89    1.33
   5 -16   0    4.14    1.24
   5  16   0    2.96    0.86
   5  16   1   73.86    4.59
   5 -16   1   78.22    5.21
   5  16   2  236.61   11.49
   5 -16   2  269.62   12.49
   5 -16   2  236.93   11.30
   5 -16   3   13.93    1.96
   5 -16   3   12.08    1.51
   5 -16   4   18.60    2.29
   5 -16   4   18.32    1.87
   5  16   4   17.05    1.44
   5 -16   5    8.22    1.55
   5 -16   5    9.03    1.34
   5  16   5    8.54    0.96
   5 -16   6  205.25   10.19
   5 -16   6  230.05   10.98
   5 -16   7    7.39    1.14
   5 -16   7    7.48    1.38
   5 -16   8   14.98    1.56
   5 -16   9    5.09    0.92
   5 -16  10  206.61    9.35
   5 -16  10  201.83    9.55
   5 -16  11   13.89    1.22
   5 -16  11   13.43    1.27
  -5  17  14    3.63    0.65
  -5  17  13   81.58    4.06
   5  17 -13   79.70    3.95
  -5  17  12  137.97    6.72
   5  17 -12  154.81    6.72
  -5  17  11  102.26    5.23
   5  17 -11  112.32    5.27
   5  17 -10  316.63   13.36
  -5  17  10  337.63   14.71
  -5  17   9    0.41    0.36
  -5  17   9    1.36    0.80
   5  17  -9    1.36    0.56
  -5  17   8    2.91    1.05
   5 -17  -8    4.26    0.78
   5  17  -8    2.66    0.71
  -5  17   7   13.71    2.12
   5 -17  -7   11.21    1.35
   5  17  -7   11.74    1.39
  -5  17   6    0.17    0.92
   5 -17  -6    0.29    0.60
   5  17  -6    1.05    0.55
  -5  17   5  415.31   19.38
   5  17  -5  402.80   17.98
   5  17  -4  127.09    6.67
   5  17  -3   41.90    3.01
   5  17  -2    9.18    1.32
   5 -17  -2    9.11    1.47
   5  17  -1   30.11    2.45
   5 -17  -1   32.08    2.77
   5  17   0  264.87   12.53
   5 -17   0  285.25   13.18
   5  17   1  218.28   10.60
   5 -17   1  240.91   11.33
   5 -17   2  138.25    7.54
   5 -17   3   48.86    3.63
   5 -17   4    0.51    0.72
   5 -17   4    0.96    0.52
   5 -17   5    2.53    0.95
   5 -17   5    4.41    0.81
   5 -17   6   19.83    2.01
   5 -17   6   19.07    1.65
   5 -17   7    1.33    0.67
   5 -17   7    2.32    0.63
   5 -17   8    2.86    0.76
   5 -17   8    2.57    0.58
   5 -17   9    2.51    0.54
  -5  18  12  103.19    5.16
   5  18 -11   57.18    2.89
   5  18 -10   11.85    1.05
   5  18  -9   45.49    2.68
  -5  18   9   50.93    3.44
   5  18  -8    0.99    0.41
  -5  18   8    1.33    0.70
  -5  18   7   11.97    1.67
   5  18  -7    9.34    1.10
   5 -18  -7    8.87    1.01
  -5  18   6   28.11    2.71
   5  18  -6   27.71    2.07
   5 -18  -6   30.30    2.10
   5  18  -5    3.68    0.75
  -5  18   5    2.11    0.91
   5 -18  -5    3.29    0.75
  -5  18   4   38.43    3.32
   5  18  -4   40.22    2.65
   5 -18  -4   37.97    2.68
   5  18  -3   35.93    2.51
   5  18  -2    1.85    0.61
   5  18  -1   23.40    1.89
   5  18   0    2.08    0.60
   5 -18   0    1.59    0.70
   5 -18   1   81.94    4.76
   5 -18   2   84.46    4.86
   5 -18   3   14.81    1.64
   5 -18   4  106.19    5.70
   5 -18   5   32.82    2.45
   5 -18   6   84.13    4.61
   5 -18   7    5.02    0.86
  -5  19   8    1.74    0.57
   5  19  -7  106.21    5.18
  -5  19   7  133.86    6.15
   5  19  -6    2.54    0.50
  -5  19   6    2.10    0.72
   5  19  -5    1.04    0.40
   5 -19  -5    1.61    0.44
  -5  19   5    1.11    0.60
   5  19  -4   13.65    1.22
   5 -19  -4   17.39    1.38
  -5  19   4   17.38    1.79
   5  19  -3  103.50    5.26
   5 -19  -3  114.08    5.49
   5  19  -2    7.36    0.88
   5 -19  -2   10.09    1.08
  -5  19   2    7.23    1.23
   5 -19   4    1.60    0.48
  -5  20   5    4.87    0.72
  -5  20   4    1.16    0.43
  -5  20   3   53.46    3.15
  -5  20   2   18.51    1.57
   5 -20  -1   22.40    1.46
  -5  20   1   20.49    1.65
   5 -20   0    0.73    0.33
  -6   0  24   34.62    2.58
  -6   0  24   33.81    2.44
  -6   0  23    0.47    0.36
  -6   0  23   -0.24    0.68
  -6   0  22    8.68    1.14
  -6   0  22   10.32    1.63
  -6   0  21    0.68    0.88
  -6   0  20    0.94    0.84
  -6   0  19    0.99    0.95
  -6   0  18  255.76   17.40
  -6   0  18  297.25   20.34
   6   0 -18  314.49   23.15
  -6   0  18  274.68   18.30
  -6   0  18  327.74   15.32
  -6   0  17    0.53    0.86
  -6   0  17    0.65    0.76
   6   0 -17   -0.92    1.50
  -6   0  17    2.94    1.39
  -6   0  17    1.20    0.95
   6   0 -16   29.16    6.32
  -6   0  16   23.08    4.39
  -6   0  16   33.52    5.68
  -6   0  16   27.74    3.03
  -6   0  15   -0.62    1.02
   6   0 -15    1.77    2.04
  -6   0  15    0.37    0.77
   6   0 -14   42.25    7.39
  -6   0  14   46.09    6.47
  -6   0  14   44.57    3.79
  -6   0  13    2.72    1.48
  -6   0  13    1.43    0.78
   6   0 -13   -0.80    2.25
  -6   0  12   49.51    5.77
   6   0 -12   59.45    8.15
  -6   0  12   47.84    3.73
  -6   0  11    0.80    0.61
  -6   0  11   -0.39    0.90
   6   0 -11    0.69    1.60
  -6   0  10    4.43    0.94
   6   0 -10    2.57    1.82
  -6   0  10    3.95    1.51
   6   0  -9    6.04    2.61
  -6   0   9    1.00    0.86
   6   0  -8  182.01   14.10
  -6   0   8  171.60   11.12
   6   0  -7    0.51    1.65
   6   0  -6 1195.31   55.81
   6   0  -5    0.94    1.54
   6   0  -4   19.91    3.90
   6   0  -3    0.92    1.30
   6   0  -2  324.39   19.40
   6   0  -1    1.36    1.39
   6   0   0 2528.19  109.22
   6   0   1    0.48    0.96
   6   0   2   57.36    5.15
   6   0   2   52.66    6.55
   6   0   3    0.86    0.74
   6   0   3    0.41    0.30
   6   0   4   56.17    4.09
   6   0   4   58.03    3.41
   6   0   4   65.31    5.79
   6   0   4   59.34    3.85
   6   0   5    0.45    0.60
   6   0   5    0.96    0.80
   6   0   5    0.99    1.00
   6   0   5    0.24    0.34
   6   0   5    0.58    0.52
   6   0   6    6.80    1.24
   6   0   6    9.40    1.18
   6   0   6    6.07    1.83
   6   0   6    6.64    1.55
   6   0   6    8.30    0.97
   6   0   7    0.13    0.56
   6   0   7    0.51    0.38
   6   0   7    0.69    0.69
   6   0   7   -0.22    0.86
   6   0   7    0.77    0.52
   6   0   8  407.57   19.55
   6   0   8  419.19   18.37
   6   0   8  428.70   20.60
   6   0   8  397.59   17.90
   6   0   8  439.70   19.02
   6   0   9    0.42    0.67
   6   0   9    1.02    2.04
   6   0   9    0.51    0.98
   6   0   9   -0.11    0.47
   6   0   9    1.54    1.04
   6   0  10   37.80    3.08
   6   0  10   36.76    3.56
   6   0  10   30.88    2.38
   6   0  10   33.24    2.74
   6   0  10   37.36    7.72
   6   0  10   36.43    4.04
   6   0  11   -0.20    0.81
   6   0  11   -0.27    1.23
   6   0  11    1.78    0.88
   6   0  12   28.16    3.57
   6   0  12   26.34    3.05
   6   0  13    0.53    1.30
   6   0  13    0.19    0.92
   6   0  14    6.95    1.94
   6   0  14   13.74    1.99
   6   0  15    1.34    1.21
   6   0  15    0.62    0.82
   6   0  16    7.66    1.35
   6   0  17    1.33    1.03
   6   0  18  133.22    7.25
   6   0  19   -0.08    0.37
  -6  -1  24  244.57   11.09
  -6  -1  24  243.24   11.25
  -6   1  23  110.91    5.89
  -6   1  23   94.04    5.00
  -6  -1  22   14.31    1.86
  -6   1  22   12.43    1.78
  -6   1  22    9.91    1.24
  -6  -1  21   79.88    5.34
  -6   1  21   72.93    5.24
  -6  -1  20    0.75    0.86
  -6   1  20    0.19    0.89
  -6  -1  19    3.19    1.27
  -6   1  19    5.91    1.50
   6  -1 -18   37.67    7.09
  -6   1  18   34.10    4.91
  -6  -1  18   34.97    5.81
  -6   1  18   37.59    3.63
  -6  -1  18   31.58    3.44
  -6   1  18   35.31    5.28
  -6   1  18   42.38    6.37
  -6   1  17    4.28    1.95
  -6  -1  17    5.16    2.24
  -6   1  17    3.27    2.00
   6  -1 -17    5.49    3.17
  -6  -1  17    2.74    1.30
  -6   1  17    3.64    1.59
  -6  -1  17    2.02    0.99
  -6   1  17    1.60    1.09
  -6  -1  16   92.75    9.62
   6  -1 -16   79.05   10.78
  -6   1  16   75.65    8.93
  -6   1  16   81.68    8.55
  -6   1  16   83.45    5.81
  -6  -1  16   78.21    5.68
  -6   1  15  142.74   12.72
  -6  -1  15  146.10   12.94
   6  -1 -15  153.43   15.13
  -6   1  15  161.55    9.01
  -6  -1  15  157.84    8.97
  -6   1  14  416.13   24.04
  -6  -1  14  436.73   25.21
   6  -1 -14  426.81   27.74
  -6   1  14  430.88   24.97
  -6   1  14  396.62   19.23
  -6  -1  14  409.67   19.31
  -6   1  13  669.26   33.91
  -6   1  13  676.14   34.52
   6  -1 -13  681.32   37.78
  -6  -1  13  624.55   28.66
  -6   1  13  655.83   28.80
  -6   1  12  573.25   30.21
  -6   1  12  589.62   25.76
  -6  -1  12  570.30   25.70
   6  -1 -12  589.57   33.90
  -6   1  11   32.40    2.85
  -6  -1  11   36.10    4.35
  -6   1  11   34.46    4.78
  -6  -1  11   32.37    2.82
   6  -1 -11   31.44    5.79
  -6   1  10   58.66    6.24
  -6  -1  10   53.77    5.40
   6  -1 -10   66.63    8.08
  -6  -1  10   59.16    3.95
  -6   1  10   61.64    4.04
   6  -1  -9  130.97   11.62
  -6   1   9  127.26    9.62
  -6  -1   9  119.61    8.48
   6  -1  -8    1.13    1.46
  -6  -1   8    1.82    0.90
  -6  -1   7  453.46   22.92
   6  -1  -7  556.54   27.57
   6  -1  -6    1.92    1.47
   6  -1  -5   69.39    7.29
   6  -1  -4   56.64    6.52
   6  -1  -3  204.27   14.00
   6  -1  -2    3.12    1.79
   6  -1  -1   21.91    4.00
   6  -1   0  564.39   29.44
   6  -1   1  239.90   15.80
   6  -1   2  327.06   20.12
   6   1   2  337.95   17.59
   6   1   3  110.19    5.66
   6   1   3  128.54    8.56
   6  -1   3  119.77    6.23
   6  -1   3  119.66    6.53
   6   1   3  104.29    6.36
   6   1   4    5.63    0.85
   6   1   4    8.79    2.13
   6  -1   4    3.73    0.98
   6   1   4    5.15    1.02
   6  -1   4    8.32    1.25
   6   1   5  798.59   33.36
   6  -1   5  834.47   33.58
   6   1   5  777.49   32.85
   6   1   5  832.53   37.21
   6  -1   5  766.36   34.51
   6   1   5  746.11   32.54
   6  -1   5  784.60   33.92
   6   1   6    8.17    1.30
   6  -1   6    9.01    1.41
   6   1   6    7.02    1.06
   6   1   6    9.18    2.27
   6  -1   6    8.73    1.79
   6   1   6    7.12    0.95
   6  -1   6    8.90    1.59
   6   1   6    8.70    1.59
   6  -1   7   63.23    4.49
   6   1   7   73.82    4.55
   6   1   7   72.20    4.22
   6  -1   7   74.33    5.66
   6   1   7   65.03    3.87
   6   1   7   73.94    5.13
   6  -1   7   72.33    5.05
   6   1   8  117.54    6.30
   6  -1   8  120.89    7.96
   6   1   8  113.68    5.95
   6   1   8  118.97    7.31
   6  -1   8  114.96    7.18
   6  -1   8  118.69    6.80
   6   1   8  116.29    6.56
   6   1   9   48.02    3.41
   6  -1   9   44.12    4.69
   6   1   9   46.93    3.13
   6   1   9   49.15    4.24
   6  -1   9   45.96    4.06
   6  -1   9   55.64    3.94
   6   1   9   52.04    3.69
   6   1  10   61.88    4.04
   6  -1  10   66.41    5.71
   6   1  10   54.22    3.60
   6   1  10   58.37    4.10
   6  -1  10   65.29    4.43
   6  -1  10   58.84    4.74
   6   1  10   63.03    4.91
   6  -1  11   26.56    3.56
   6  -1  11   24.94    2.58
   6  -1  11   27.64    3.07
   6   1  11   26.97    3.04
   6  -1  12  336.82   16.86
   6  -1  12  294.45   14.61
   6  -1  12  330.07   15.67
   6   1  12  301.13   15.60
   6  -1  13  303.77   16.11
   6  -1  13  323.13   15.19
   6   1  13  282.22   15.04
   6  -1  14  102.25    7.42
   6  -1  14  114.70    6.82
   6   1  14  107.88    6.89
   6  -1  15  162.16    9.54
   6  -1  15  162.62    8.61
   6   1  15  152.48    8.68
   6   1  16   28.03    2.63
   6  -1  17   75.06    5.12
   6   1  17   71.54    4.36
   6  -1  18   30.63    2.67
   6  -1  19  268.28   12.08
  -6  -2  24    0.49    0.41
  -6   2  24    0.79    0.41
  -6  -2  24    0.32    0.38
  -6   2  24    0.27    0.38
  -6  -2  23  178.42    8.49
  -6   2  23  183.47    8.59
  -6  -2  22   33.21    2.34
  -6   2  22   32.72    2.40
  -6   2  22   33.82    3.05
  -6  -2  21   47.97    3.91
  -6   2  21   45.92    3.87
  -6   2  20  205.75   11.08
  -6  -2  20  206.96   11.07
  -6  -2  19    0.20    0.79
  -6   2  19    1.76    1.06
  -6   2  18   58.22    4.62
  -6  -2  18   57.52    4.66
   6  -2 -18   49.38    8.23
   6   2 -18   41.53    7.58
  -6  -2  18   49.65    6.21
  -6   2  18   53.66    6.66
  -6   2  18   46.59    6.65
  -6   2  17  207.44   10.70
  -6  -2  17  192.72   10.58
  -6   2  17  174.15   13.80
  -6   2  17  166.93   14.48
   6  -2 -17  169.60   16.75
   6   2 -17  172.60   16.60
  -6  -2  17  183.93   13.65
  -6   2  17  175.89   13.71
  -6   2  16   98.86    6.41
  -6  -2  16   89.79    6.26
  -6  -2  16   89.96    9.65
  -6   2  16   93.88    9.77
   6  -2 -16   81.65   10.92
   6   2 -16   92.80   11.48
  -6  -2  16  101.52    9.37
  -6   2  16   88.49    9.06
   6  -2 -15   34.87    6.90
   6   2 -15   40.24    7.42
  -6   2  15   33.87    5.68
  -6  -2  15   34.84    3.38
  -6   2  15   35.73    3.44
  -6   2  15   36.21    5.58
  -6  -2  15   34.72    5.72
  -6   2  14  121.95   11.11
  -6  -2  14  124.16    7.40
  -6   2  14  117.21    7.27
  -6   2  14  117.63   10.80
   6  -2 -14  127.18   13.08
   6   2 -14  125.55   13.13
  -6   2  13  551.66   29.99
  -6  -2  13  535.93   24.45
  -6   2  13  538.69   24.50
  -6   2  13  549.17   29.66
   6  -2 -13  558.91   32.93
   6   2 -13  565.85   33.19
  -6   2  12   78.40    7.99
  -6  -2  12   69.42    4.76
  -6   2  12   74.85    4.89
  -6   2  12   68.03    7.47
   6  -2 -12   70.62    9.07
   6   2 -12   57.32    8.43
  -6   2  11   66.91    7.25
  -6  -2  11   66.52    4.46
  -6   2  11   63.51    4.42
   6  -2 -11   79.76    9.13
   6   2 -11   75.69    9.12
  -6   2  10   85.34    8.12
  -6   2  10   82.94    5.16
  -6  -2  10   86.07    5.14
   6  -2 -10   89.08    9.62
   6   2 -10   88.08    9.73
   6  -2  -9    4.15    2.17
   6   2  -9    5.03    2.52
   6  -2  -8  316.27   14.37
   6  -2  -8  346.68   20.92
   6   2  -8  315.19   20.66
   6  -2  -7   41.22    5.69
   6   2  -7   36.52    5.58
   6  -2  -6  100.85    9.14
   6   2  -6   94.08    9.14
   6   2  -5   76.99    8.02
   6  -2  -5   79.13    7.86
   6  -2  -4   20.92    4.03
   6   2  -4   32.58    5.03
   6  -2  -3  124.67   10.35
   6   2  -3  144.83   11.28
   6  -2  -2  382.11   21.38
   6   2  -2  364.12   21.59
   6  -2  -1   14.49    1.42
   6  -2  -1   18.59    3.66
   6   2  -1   15.84    3.60
   6  -2   0 1072.91   43.42
   6   2   0 1007.66   43.62
   6  -2   1  779.39   33.79
   6   2   1  782.69   34.56
   6  -2   2   30.76    3.66
   6   2   2   39.57    4.23
   6   2   3  137.59    7.91
   6  -2   3  143.20    7.05
   6   2   3  147.54    7.18
   6   2   3  171.56   10.43
   6  -2   3  161.94    9.92
   6  -2   3  151.72    7.74
   6  -2   3  164.74    8.74
   6   2   3  148.32    8.43
   6  -2   3  160.54    8.10
   6   2   4    2.32    0.69
   6  -2   4    1.43    0.70
   6  -2   4    1.09    0.67
   6   2   4    1.01    0.67
   6   2   4    0.65    0.75
   6  -2   4    1.21    0.45
   6  -2   4    1.17    0.89
   6   2   4    1.26    0.47
   6   2   4    1.54    0.47
   6  -2   5  285.41   12.88
   6   2   5  263.68   12.49
   6  -2   5  277.83   13.11
   6  -2   5  272.79   13.73
   6   2   5  268.15   13.62
   6   2   5  251.00   11.90
   6  -2   5  262.99   12.00
   6   2   5  264.66   12.15
   6  -2   5  282.15   15.44
   6   2   5  300.79   16.15
   6  -2   6  821.50   34.61
   6   2   6  804.88   34.25
   6  -2   6  820.26   34.94
   6  -2   6  828.28   35.81
   6   2   6  762.58   35.49
   6   2   6  780.80   33.63
   6   2   6  825.99   33.95
   6  -2   6  844.83   38.04
   6   2   6  854.76   38.63
   6  -2   6  778.84   33.71
   6  -2   7  245.04   11.99
   6   2   7  232.33   11.55
   6   2   7  243.66   12.51
   6  -2   7  258.38   12.44
   6  -2   7  243.96   13.10
   6   2   7  241.13   13.01
   6   2   7  234.32   11.07
   6  -2   7  241.26   11.21
   6   2   7  248.52   11.41
   6   2   8    0.72    0.61
   6  -2   8    1.50    0.75
   6  -2   8    1.05    0.85
   6   2   8    0.57    0.85
   6  -2   8    0.48    0.91
   6   2   8   -0.24    0.99
   6  -2   8    0.39    0.49
   6   2   8    0.54    0.53
   6   2   8    0.09    0.39
   6   2   9   65.73    4.97
   6  -2   9   66.64    4.86
   6  -2   9   63.03    3.90
   6   2   9   64.75    4.07
   6  -2   9   65.39    5.52
   6   2   9   56.69    5.19
   6   2   9   56.46    3.69
   6  -2   9   62.59    4.42
   6   2   9   52.27    3.88
   6   2  10   34.81    3.55
   6  -2  10   40.91    3.60
   6  -2  10   37.85    4.09
   6   2  10   31.81    3.83
   6   2  10   31.92    2.53
   6  -2  10   29.87    2.95
   6   2  11  221.78   11.49
   6  -2  11  203.37   10.99
   6  -2  11  224.05   12.29
   6   2  11  208.60   12.15
   6   2  11  183.76    9.64
   6  -2  11  208.62   10.57
   6  -2  12    1.84    1.36
   6   2  12    0.82    1.26
   6  -2  12    0.73    0.74
   6  -2  12    1.66    1.04
   6   2  12    1.86    1.15
   6  -2  13  307.61   15.78
   6   2  13  298.26   15.85
   6   2  13  300.54   14.97
   6  -2  13  335.82   14.89
   6  -2  14   72.13    5.71
   6   2  14   62.27    5.52
   6   2  14   68.71    5.12
   6  -2  14   73.92    4.99
   6   2  15   -0.17    0.88
   6   2  16    0.41    0.75
   6   2  17   30.04    2.94
   6  -2  17   30.10    2.88
   6   2  17   28.67    2.45
   6   2  18   41.99    3.14
   6  -2  18   35.72    2.92
  -6  -3  24   48.33    2.81
  -6   3  24   38.62    2.77
  -6  -3  24   48.84    2.70
  -6   3  24   46.26    2.82
  -6   3  23   21.53    2.10
  -6  -3  23   18.94    1.80
  -6  -3  23   23.25    2.06
  -6   3  23   16.62    1.90
  -6   3  22   25.02    2.45
  -6  -3  22   20.00    1.67
  -6   3  22   19.37    1.75
  -6   3  21   16.20    2.16
  -6  -3  21   15.97    1.58
  -6   3  21   15.21    1.64
  -6   3  20   63.67    4.91
  -6  -3  20   72.70    5.11
  -6  -3  19  339.55   16.62
  -6   3  19  332.99   16.53
  -6   3  18   26.85    3.18
  -6  -3  18   28.86    3.14
  -6  -3  17  333.40   20.85
  -6   3  17  340.62   21.73
  -6   3  17  345.22   22.64
  -6   3  17  399.39   18.03
  -6  -3  17  398.93   18.12
  -6   3  17  320.03   21.61
  -6  -3  17  320.93   22.08
   6  -3 -17  382.46   26.05
   6   3 -17  343.15   25.09
  -6  -3  16   54.87    6.67
  -6   3  16   65.09    7.60
  -6   3  16   66.51    7.81
  -6   3  16   55.39    7.35
   6  -3 -16   70.83    9.79
   6   3 -16   56.58    8.82
  -6   3  16   62.02    4.86
  -6  -3  16   62.91    4.90
  -6   3  15   57.08    7.22
   6  -3 -15   55.43    8.46
   6   3 -15   51.58    8.29
  -6   3  15   57.15    4.52
  -6  -3  15   49.26    4.28
  -6   3  15   54.60    7.36
  -6   3  14  358.70   22.54
  -6   3  14  338.14   21.25
   6  -3 -14  368.73   24.77
   6   3 -14  355.30   24.65
  -6   3  14  335.95   16.70
  -6  -3  14  350.65   16.81
  -6   3  13  629.54   32.67
  -6   3  13  577.91   30.89
   6  -3 -13  634.55   35.05
   6   3 -13  520.59   33.76
  -6   3  13  578.28   26.23
  -6  -3  13  586.06   26.25
  -6   3  12    2.83    1.73
   6  -3 -12    5.75    2.63
   6   3 -12    3.03    2.32
  -6   3  12    4.65    1.86
  -6   3  12    2.99    0.97
  -6  -3  12    5.04    1.17
  -6   3  11   23.85    2.43
   6  -3 -11   26.73    5.30
   6   3 -11   24.29    5.09
  -6   3  11   22.53    4.29
  -6   3  11   20.83    3.74
  -6  -3  11   19.11    2.18
  -6   3  10  249.19   16.12
  -6   3  10  227.43   11.30
  -6  -3  10  224.31   11.18
   6  -3 -10  252.24   17.42
   6   3 -10  217.47   17.07
   6  -3  -9    5.89    2.36
   6   3  -9    5.15    2.58
   6  -3  -9    4.90    0.93
  -6   3   9    4.53    0.97
   6  -3  -8    1.82    0.66
   6  -3  -8    1.55    1.47
   6   3  -8    3.39    1.96
   6  -3  -7    1.21    0.58
   6  -3  -7   -0.50    0.99
   6   3  -7    2.17    1.66
   6   3  -6   55.95    6.76
   6  -3  -6   54.80    6.49
   6  -3  -5  261.27   16.74
   6   3  -5  265.78   17.36
   6  -3  -4   49.15    5.96
   6   3  -4   47.49    6.20
   6  -3  -3    8.92    2.59
   6   3  -3    6.44    2.38
   6  -3  -2   76.09    7.36
   6   3  -2   75.02    7.78
   6  -3  -2   62.65    3.82
   6  -3  -1   10.53    2.83
   6   3  -1   15.35    3.52
   6  -3  -1   14.46    1.48
   6  -3   0    3.11    1.70
   6   3   0    0.50    1.43
   6  -3   0    2.73    0.68
   6   3   1   39.07    5.68
   6  -3   1   47.08    5.76
   6  -3   1   38.25    2.69
   6   3   2  175.26   10.59
   6  -3   2  155.41    9.75
   6  -3   2  152.96    7.98
   6   3   3   17.02    2.17
   6  -3   3   18.81    2.27
   6   3   3   17.30    1.73
   6  -3   3   15.51    1.86
   6   3   3   13.45    1.79
   6  -3   3   13.80    2.38
   6   3   3   15.75    1.47
   6   3   3   17.51    2.89
   6  -3   3   14.22    1.32
   6   3   3   15.95    1.45
   6   3   4  324.90   14.06
   6  -3   4  321.99   14.37
   6  -3   4  314.95   14.53
   6   3   4  307.49   14.65
   6   3   4  297.39   13.53
   6   3   4  332.34   17.45
   6   3   4  308.74   13.66
   6  -3   4  313.07   16.59
   6  -3   4  281.07   13.37
   6   3   5    0.63    0.50
   6  -3   5    0.93    0.72
   6  -3   5    0.86    0.74
   6   3   5    1.45    0.83
   6  -3   5    1.55    1.01
   6  -3   5    0.92    0.42
   6   3   5    0.53    0.45
   6   3   5    1.08    0.83
   6  -3   5    0.86    0.57
   6   3   5    2.69    0.63
   6  -3   6   18.07    2.18
   6  -3   6   21.93    2.27
   6   3   6   15.06    1.71
   6   3   6   20.60    2.41
   6  -3   6   15.67    2.35
   6   3   6   16.43    2.38
   6   3   6   15.30    1.57
   6  -3   6   14.75    1.50
   6   3   6   16.56    1.70
   6   3   7 1110.07   47.76
   6  -3   7 1192.12   48.53
   6  -3   7 1092.65   47.38
   6   3   7 1192.80   47.78
   6  -3   7 1214.98   48.82
   6   3   7 1115.54   47.46
   6  -3   7 1208.84   49.80
   6   3   7 1086.75   49.37
   6  -3   8  376.43   17.70
   6   3   8  354.44   16.92
   6  -3   8  371.22   16.75
   6   3   8  393.95   17.07
   6  -3   8  403.46   19.08
   6   3   8  394.86   18.96
   6  -3   8  394.99   18.05
   6   3   8  369.63   16.77
   6  -3   9    0.97    0.82
   6  -3   9    0.53    0.76
   6   3   9    0.41    0.75
   6  -3   9    1.23    1.20
   6   3   9    0.99    1.04
   6   3   9    4.43    0.88
   6   3   9    1.76    0.72
   6  -3   9    1.91    0.68
   6  -3  10    0.76    1.17
   6   3  10    0.52    1.00
   6  -3  10    0.72    0.86
   6   3  10    0.21    0.84
   6  -3  10    1.64    0.91
   6   3  10    0.21    0.45
   6  -3  11   43.29    3.62
   6  -3  11   44.60    4.55
   6   3  11   48.48    4.77
   6   3  11   46.31    4.22
   6  -3  11   44.09    3.86
   6   3  11   40.20    3.06
   6  -3  12    9.49    1.67
   6  -3  12   11.35    2.33
   6   3  12   10.10    2.28
   6  -3  12   12.39    1.95
   6   3  12   10.42    2.04
   6  -3  13  333.46   16.69
   6  -3  13  400.26   18.67
   6   3  13  367.93   18.69
   6   3  13  388.46   18.01
   6   3  14   67.45    5.50
   6   3  14   69.47    4.99
   6   3  15    1.00    0.96
   6  -3  16   41.80    3.73
   6   3  16   39.96    3.81
   6   3  16   41.76    3.36
   6  -3  17    7.24    1.41
   6   3  17    7.89    1.49
   6   3  17    7.51    1.18
   6   3  18    0.34    0.58
   6  -3  18    0.30    0.53
  -6   4  23    6.65    1.13
  -6  -4  23    5.34    0.95
  -6   4  23    6.11    1.08
  -6  -4  23    6.96    0.97
  -6   4  23    5.49    0.99
  -6  -4  22  263.06    4.82
  -6   4  22  244.70    5.05
  -6  -4  21   29.09    2.17
  -6   4  21   26.97    2.23
  -6   4  21   30.09    2.92
  -6   4  20  104.93    6.64
  -6  -4  19   20.43    2.58
  -6   4  19   19.86    2.56
  -6   4  18   37.87    3.72
  -6  -4  18   40.51    3.81
  -6  -4  17    1.61    1.04
  -6   4  17    1.01    1.02
  -6  -4  17    3.15    1.47
  -6   4  17    3.69    1.83
  -6  -4  17    1.75    1.17
  -6   4  17    1.74    1.17
   6  -4 -17    2.51    2.16
   6   4 -17    2.47    2.33
  -6   4  16   11.93    3.46
  -6  -4  16    8.40    3.09
  -6  -4  16   11.78    1.99
  -6   4  16    9.19    1.79
  -6  -4  16   11.38    2.88
  -6   4  16   12.68    3.15
  -6  -4  16    6.54    2.78
  -6   4  16   11.56    3.09
  -6   4  16   13.18    3.62
   6  -4 -16   10.09    4.03
   6   4 -16   12.61    4.02
  -6   4  15    0.70    1.14
  -6  -4  15    1.36    0.92
  -6   4  15    1.36    0.84
  -6  -4  15    2.39    1.55
  -6   4  15   -0.56    1.11
  -6   4  15    0.56    1.12
   6  -4 -15    3.30    2.52
   6   4 -15    0.84    1.68
  -6   4  15    0.60    0.97
  -6   4  14   25.66    5.04
  -6   4  14   25.70    2.84
  -6   4  14   29.61    4.87
   6  -4 -14   26.22    5.60
   6   4 -14   24.61    5.54
  -6  -4  14   24.80    2.78
  -6   4  13   -0.65    1.29
  -6   4  13    0.18    0.57
  -6  -4  13   -0.17    0.69
  -6   4  13    4.31    1.83
   6  -4 -13    0.75    1.74
   6   4 -13    1.58    2.04
  -6   4  12   92.05    9.50
  -6   4  12   81.88    5.61
  -6  -4  12   84.68    5.59
   6  -4 -12   94.00   10.41
   6   4 -12   90.00   10.31
  -6   4  12   87.31    8.09
  -6   4  11  688.91   35.12
  -6   4  11  650.47   28.44
  -6  -4  11  614.62   28.20
   6  -4 -11  711.33   36.36
   6   4 -11  665.33   36.50
  -6   4  11  629.08   31.83
   6  -4 -10  602.70   32.21
   6   4 -10  584.00   32.78
  -6   4  10  575.11   28.30
  -6   4  10  570.60   31.07
  -6  -4  10  546.88   24.96
  -6   4  10  567.70   25.18
   6  -4 -10  571.69   24.57
   6  -4  -9   58.28    3.66
   6  -4  -9   62.25    7.54
   6   4  -9   42.75    6.77
  -6   4   9   62.84    5.73
  -6   4   9   50.59    3.84
  -6   4   8  232.46   11.41
   6  -4  -8  253.84   16.51
   6   4  -8  250.63   17.09
   6  -4  -8  233.43   11.01
  -6   4   8  230.32   12.55
   6  -4  -7   58.17    6.87
   6   4  -7   63.60    7.59
   6  -4  -7   59.70    3.72
  -6   4   7   57.88    4.83
   6  -4  -6   -0.48    0.96
   6   4  -6   -0.54    1.52
   6  -4  -6    1.32    0.61
   6  -4  -5  324.01   19.25
   6   4  -5  303.44   19.57
   6  -4  -4  119.88    9.90
   6   4  -4  105.40    9.90
   6  -4  -3   28.27    2.30
   6  -4  -3   28.76    4.39
   6   4  -3   25.94    4.50
   6  -4  -2   12.49    1.46
   6  -4  -2   13.49    3.02
   6   4  -2   11.63    3.18
   6  -4  -1  491.30   22.09
   6   4  -1  537.53   28.27
   6  -4   0  509.77   22.76
   6  -4   0  590.85   28.46
   6   4   0  556.22   29.12
   6  -4   1   57.27    4.92
   6  -4   1   48.28    3.38
   6   4   1   68.48    5.70
   6  -4   1   51.89    3.55
   6   4   1   59.21    7.09
   6  -4   1   65.89    6.90
   6  -4   2  659.28   26.90
   6  -4   2  601.77   25.89
   6   4   2  557.15   26.33
   6   4   2  575.85   26.01
   6  -4   2  620.96   28.17
   6   4   2  632.33   25.25
   6   4   2  684.09   29.35
   6  -4   2  569.44   24.94
   6   4   2  578.57   25.25
   6  -4   2  582.27   25.95
   6  -4   3    7.31    1.27
   6  -4   3    8.35    1.36
   6   4   3    7.78    1.13
   6   4   3    8.99    1.44
   6  -4   3   10.25    1.72
   6   4   3    5.93    1.32
   6   4   3    7.72    1.03
   6   4   3    5.52    0.89
   6   4   3    9.96    2.22
   6  -4   3    7.12    0.92
   6  -4   3    8.02    1.85
   6   4   3    8.32    1.06
   6  -4   4   39.87    3.21
   6   4   4   37.54    2.84
   6   4   4   37.55    3.28
   6  -4   4   41.92    3.69
   6   4   4   36.92    3.46
   6   4   4   39.75    2.72
   6   4   4   40.88    2.75
   6   4   4   42.44    4.80
   6  -4   4   42.33    2.60
   6  -4   4   44.33    4.50
   6   4   5  489.61   22.33
   6  -4   5  493.53   22.84
   6   4   5  509.37   23.34
   6  -4   5  539.93   23.10
   6   4   5  512.86   22.19
   6  -4   5  504.89   21.96
   6  -4   5  544.15   25.63
   6   4   5  570.75   26.79
   6   4   5  537.90   22.30
   6   4   6  243.41   12.20
   6  -4   6  256.08   12.75
   6  -4   6  271.53   13.00
   6   4   6  279.35   13.50
   6  -4   6  263.72   11.97
   6   4   6  285.36   12.35
   6   4   6  262.12   12.15
   6  -4   7   19.84    2.23
   6  -4   7   20.79    2.37
   6  -4   7   23.92    1.96
   6   4   7   22.80    2.10
   6  -4   7   26.14    3.05
   6   4   7   21.82    2.78
   6   4   7   25.87    2.80
   6   4   7   21.61    1.99
   6  -4   7   23.11    2.52
   6  -4   8   50.57    4.13
   6   4   8   55.17    3.65
   6  -4   8   56.93    4.30
   6   4   8   68.23    4.01
   6  -4   8   56.31    3.55
   6  -4   8   56.24    4.85
   6   4   8   52.53    4.74
   6  -4   9   11.65    1.38
   6   4   9    9.99    1.44
   6  -4   9    9.94    2.12
   6   4   9    8.45    1.93
   6   4   9   10.22    1.40
   6  -4   9    9.22    1.71
   6   4  10   15.96    2.43
   6  -4  10   13.87    2.48
   6   4  10   18.64    2.78
   6   4  10   15.88    1.78
   6  -4  10   14.73    2.08
   6   4  11   13.86    2.26
   6  -4  11   10.02    2.12
   6   4  11   11.58    2.34
   6   4  11    9.68    1.40
   6  -4  11   11.61    1.87
   6  -4  12   31.92    3.07
   6  -4  12   38.22    3.95
   6   4  12   35.81    3.95
   6   4  12   32.66    3.50
   6  -4  13  207.24   10.57
   6   4  13  207.41   11.98
   6   4  13  214.13   11.43
   6   4  14   85.30    5.72
   6  -4  14   77.01    4.83
   6   4  15  145.44    8.43
   6  -4  15  158.75    8.89
   6   4  16   78.33    5.00
   6  -4  16   76.89    5.21
   6   4  16   78.58    5.47
   6   4  17   11.64    1.50
   6   4  17    9.98    1.61
   6  -4  17   11.00    1.56
   6   4  18   28.01    2.07
   6  -4  18   27.21    2.13
   6   4  18   26.73    2.26
  -6   5  23    4.58    0.84
  -6  -5  23    8.41    0.99
  -6  -5  23    6.89    0.85
  -6   5  23    5.91    0.89
  -6   5  22   39.20    3.11
  -6   5  21   58.03    3.97
  -6  -5  21   55.60    2.92
  -6   5  21   48.50    2.97
  -6   5  20    7.27    1.14
  -6   5  20    5.82    1.40
  -6   5  19   12.49    1.50
  -6   5  19   14.24    2.11
  -6   5  18   65.96    5.08
  -6  -5  17    4.44    1.83
  -6   5  17    6.08    2.04
  -6  -5  17    3.80    1.48
  -6  -5  17    4.54    1.40
  -6   5  17    6.48    1.58
  -6   5  17   11.21    2.98
   6  -5 -17    7.82    2.87
   6   5 -17    7.03    2.72
  -6   5  16    2.22    1.48
  -6  -5  16    0.57    1.14
  -6  -5  16    0.88    0.88
  -6   5  16    1.58    1.05
  -6  -5  16   -0.87    0.04
  -6  -5  16    0.99    0.91
  -6   5  16    1.21    0.93
  -6   5  16    1.81    1.39
   6  -5 -16    0.80    1.30
   6   5 -16    0.80    1.85
  -6   5  15  165.00    9.16
  -6  -5  15  130.29   11.03
  -6   5  15  148.13   12.32
  -6   5  15  138.09   13.42
  -6  -5  15  161.88    9.11
   6  -5 -15  160.82   14.68
   6   5 -15  156.52   14.70
  -6   5  14   52.69    4.40
  -6   5  14   48.25    6.12
  -6   5  14   56.99    7.98
  -6  -5  14   60.37    4.58
   6  -5 -14   62.00    8.44
   6   5 -14   55.40    8.27
  -6   5  14   46.27    6.64
  -6   5  13   14.20    2.11
  -6   5  13   13.99    3.09
  -6   5  13   16.05    4.07
  -6  -5  13   13.33    2.03
   6  -5 -13   21.34    4.99
   6   5 -13   11.75    3.77
  -6   5  12  339.33   21.91
   6  -5 -12  355.57   22.60
   6   5 -12  303.49   22.10
  -6   5  12  313.45   18.50
  -6  -5  12  321.44   15.54
  -6   5  12  317.78   15.67
  -6   5  11   25.85    2.71
   6  -5 -11   26.89    2.35
  -6   5  11   22.83    4.70
  -6  -5  11   25.08    2.65
  -6   5  11   28.70    4.01
   6  -5 -11   20.41    4.62
   6   5 -11   30.62    5.92
  -6   5  10  136.55    7.72
   6  -5 -10  134.71    7.07
  -6  -5  10  133.05    7.52
   6  -5 -10  139.40   12.35
   6   5 -10  137.51   12.77
  -6   5  10  130.84    9.42
  -6   5   9  161.50   10.67
  -6   5   9  172.85   10.60
  -6   5   9  180.37    9.29
   6  -5  -9  195.70   14.03
   6   5  -9  176.25   14.14
   6  -5  -9  171.73    8.65
  -6   5   8  154.82    9.65
  -6   5   8  140.30    9.49
  -6   5   8  170.17    8.48
   6  -5  -8  160.14   12.39
   6   5  -8  178.32   13.63
   6  -5  -8  144.47    7.69
  -6   5   7  381.66   19.53
   6  -5  -7  462.56   24.10
   6   5  -7  429.82   24.48
  -6   5   7  373.31   20.11
  -6   5   7  417.38   18.46
   6  -5  -7  402.80   17.90
  -6   5   6    1.38    0.72
   6  -5  -6    1.44    1.36
   6   5  -6    3.87    2.21
   6  -5  -6    1.30    0.61
   6  -5  -5   13.07    3.04
   6   5  -5    9.26    2.92
   6  -5  -5   11.89    1.41
   6  -5  -4  695.16   32.77
   6   5  -4  640.33   33.29
   6  -5  -4  633.20   27.52
   6  -5  -4  613.39   26.88
   6   5  -3 1274.74   58.14
   6  -5  -3 1194.96   51.52
   6   5  -2  176.81    8.73
   6  -5  -2  211.24   13.40
   6   5  -2  172.30   13.31
   6  -5  -2  181.98    9.00
   6  -5  -1  151.91    8.07
   6   5  -1  154.20    7.73
   6  -5  -1  145.96    7.78
   6   5  -1  154.83    7.61
   6  -5  -1  178.76   12.08
   6   5  -1  152.30   12.17
   6  -5   0  638.13   27.88
   6   5   0  662.70   27.82
   6  -5   0  652.00   28.26
   6  -5   0  644.33   27.92
   6   5   0  641.12   27.64
   6  -5   0  733.22   33.62
   6   5   0  619.47   33.67
   6  -5   1   50.62    4.58
   6  -5   1   43.33    3.25
   6   5   1   54.09    3.30
   6  -5   1   46.31    3.39
   6   5   1   49.49    3.30
   6  -5   1   47.13    3.59
   6  -5   2   23.26    2.23
   6  -5   2   25.58    2.63
   6   5   2   25.05    2.53
   6   5   2   22.34    1.96
   6  -5   2   23.28    3.02
   6  -5   2   20.68    1.62
   6   5   2   23.18    1.82
   6   5   2   25.38    3.44
   6   5   2   20.95    2.20
   6   5   2   22.86    2.04
   6  -5   2   23.25    2.33
   6   5   2   21.61    1.90
   6  -5   3   56.90    3.86
   6  -5   3   56.79    4.24
   6   5   3   50.70    4.00
   6   5   3   52.43    3.32
   6   5   3   49.65    3.29
   6  -5   3   49.18    2.97
   6   5   3   60.93    5.71
   6  -5   3   50.85    4.78
   6   5   3   53.45    3.24
   6   5   3   49.34    3.79
   6  -5   3   51.67    3.83
   6   5   3   50.31    3.38
   6  -5   4   38.35    3.43
   6  -5   4   37.13    3.06
   6   5   4   29.51    3.08
   6   5   4   34.48    2.55
   6  -5   4   30.00    2.22
   6  -5   4   32.61    3.86
   6   5   4   48.68    5.06
   6   5   4   46.60    2.75
   6   5   4   32.44    3.05
   6  -5   4   33.83    3.00
   6   5   4   30.93    2.54
   6  -5   5  159.81    8.75
   6   5   5  136.77    8.34
   6   5   5  149.24    7.38
   6   5   5  149.84    8.31
   6   5   5  138.29    7.32
   6  -5   5  134.93    7.89
   6  -5   5  142.99    6.99
   6   5   5  152.79    7.34
   6   5   5  144.29   10.49
   6  -5   6    0.15    0.72
   6   5   6    0.90    0.81
   6   5   6    0.41    0.49
   6  -5   6    0.46    0.63
   6   5   6    0.60    0.50
   6  -5   6    1.60    0.55
   6  -5   7    2.60    0.99
   6   5   7    1.54    0.97
   6   5   7    2.26    0.73
   6  -5   7    0.15    0.69
   6   5   7    1.68    0.65
   6  -5   7    2.04    0.62
   6  -5   8    2.02    0.99
   6  -5   8    1.88    0.61
   6   5   8    0.56    0.58
   6   5   8    1.82    0.91
   6  -5   8    0.46    0.66
   6   5   8    1.47    0.68
   6  -5   9  124.88    7.30
   6   5   9  123.88    6.57
   6  -5   9  108.96    6.76
   6  -5  10   62.83    4.69
   6   5  10   63.52    4.16
   6  -5  11  213.41   10.89
   6   5  11  200.06   10.11
   6  -5  12    8.54    1.56
   6   5  12    7.10    1.24
   6   5  12    9.81    1.94
   6  -5  13   83.37    5.43
   6   5  13   94.72    6.26
   6  -5  14  267.07   13.23
   6  -5  14  315.47   14.72
   6   5  14  288.90   14.82
   6   5  14  282.39   14.23
   6   5  15    6.29    1.56
   6   5  15    7.15    1.64
   6  -5  15    5.05    1.43
   6   5  16    5.27    1.25
   6  -5  16    5.73    1.24
   6   5  16    6.21    1.41
   6   5  17  199.66    9.60
   6  -5  17  200.30    9.54
   6   5  17  191.65    9.74
   6   5  18   68.90    3.81
  -6   6  22    5.27    0.93
  -6  -6  22    9.40    1.02
  -6   6  22    3.68    0.80
  -6  -6  22    9.02    1.10
  -6   6  21   85.68    4.19
  -6  -6  21   80.15    2.56
  -6  -6  20    6.38    0.89
  -6   6  20    6.73    0.99
   6   6 -20    5.03    0.84
  -6   6  20    5.71    0.94
  -6   6  20    4.11    1.21
   6   6 -19    1.05    0.54
  -6   6  19    0.54    0.52
  -6   6  19    0.36    0.89
  -6   6  18  194.61   10.29
   6   6 -18  172.45    8.70
  -6   6  17   14.13    2.22
  -6  -6  16   92.94   11.78
  -6   6  16  128.72    7.43
  -6  -6  16   98.92    8.66
  -6   6  16  103.62    9.50
   6  -6 -16  115.02   11.69
   6   6 -16  103.10   11.35
  -6  -6  16   96.41    9.61
  -6   6  16   92.65   10.82
  -6   6  15  193.13   16.05
  -6  -6  15  162.73   11.99
  -6   6  15  151.85   12.46
  -6  -6  15  124.49   14.73
  -6   6  15  193.21   10.12
   6  -6 -15  188.95   15.80
   6   6 -15  160.96   15.07
  -6   6  15  175.41   13.91
  -6   6  14   15.80    2.38
  -6  -6  14   19.11    2.49
  -6   6  14   16.89    4.49
  -6  -6  14   14.13    3.09
  -6   6  14   20.75    4.12
  -6   6  14   22.20    4.32
   6  -6 -14   20.63    4.86
   6   6 -14   13.95    3.96
  -6   6  13  127.92    7.55
  -6  -6  13  117.80    7.24
  -6   6  13  116.48   12.00
  -6   6  13   99.64    8.97
   6  -6 -13  118.15   11.96
   6   6 -13  116.15   12.14
  -6   6  13  113.06   10.47
  -6   6  12   69.09    5.20
  -6  -6  12   84.35    5.36
   6   6 -12   63.61    4.23
  -6   6  12   71.87    9.01
  -6   6  12   77.75    6.97
   6  -6 -12   71.39    8.71
   6   6 -12   67.83    8.90
   6  -6 -11   45.46    3.25
  -6   6  11   40.18    3.67
  -6  -6  11   46.37    3.73
   6   6 -11   39.16    2.95
  -6   6  11   39.37    6.57
   6  -6 -11   39.24    6.04
   6   6 -11   47.14    6.90
  -6   6  11   45.03    5.01
  -6   6  10  260.50   15.15
  -6   6  10  249.12   15.14
   6  -6 -10  266.28   18.24
   6   6 -10  296.16   19.62
  -6   6  10  276.11   13.69
   6  -6 -10  287.18   12.94
  -6   6   9  213.08   13.03
   6  -6  -9  241.34   11.38
   6  -6  -9  253.15   16.87
   6   6  -9  243.44   17.34
  -6   6   9  233.65   13.92
  -6   6   9  248.97   12.22
   6  -6  -8  115.87    6.12
   6   6  -8  106.38   10.34
   6  -6  -8  114.01   10.11
  -6   6   8  100.67    8.00
  -6   6   8  106.05    6.51
   6  -6  -7  627.25   27.48
  -6   6   7  660.23   28.23
   6  -6  -7  666.26   33.39
   6   6  -7  633.38   34.09
  -6   6   7  619.55   30.67
  -6   6   6  322.31   14.83
   6   6  -6  312.59   19.99
   6  -6  -6  327.54   19.29
   6  -6  -6  302.50   14.22
   6   6  -6  311.27   13.69
   6  -6  -5  697.17   30.35
   6  -6  -5  673.88   34.74
   6   6  -5  711.85   36.24
   6  -6  -4  512.72   22.57
   6  -6  -4  503.40   22.86
   6  -6  -4  532.27   27.32
   6   6  -4  509.84   28.18
   6  -6  -3  389.24   17.16
   6  -6  -3  364.76   17.32
   6  -6  -3  387.92   21.45
   6   6  -3  355.26   21.99
   6  -6  -2    1.28    1.20
   6   6  -2    2.07    1.46
   6  -6  -2    1.35    0.73
   6  -6  -2    0.93    0.58
   6  -6  -1  141.34    7.80
   6  -6  -1  166.23   11.59
   6   6  -1  149.51   12.08
   6   6  -1  148.70    7.59
   6  -6  -1  158.53    7.79
   6  -6   0  334.49   15.62
   6  -6   0  339.14   16.07
   6   6   0  393.01   18.69
   6  -6   0  334.30   17.24
   6  -6   0  339.78   15.76
   6  -6   0  393.52   20.64
   6   6   0  338.49   15.44
   6  -6   1   56.21    4.04
   6   6   1   59.40    3.23
   6  -6   1   50.40    2.93
   6  -6   1   56.84    4.86
   6   6   1   55.17    5.27
   6  -6   1   59.29    4.21
   6   6   1   48.30    3.82
   6  -6   1   53.26    3.72
   6   6   1   48.35    3.40
   6   6   1   49.59    3.60
   6  -6   2    9.00    1.52
   6  -6   2    8.08    0.92
   6   6   2    7.78    1.02
   6   6   2   11.10    2.31
   6  -6   2    9.34    1.85
   6  -6   2   10.34    1.68
   6   6   2    6.95    1.33
   6  -6   2   10.32    1.49
   6   6   2    8.84    1.25
   6   6   2    9.06    1.42
   6  -6   3  286.55   14.54
   6   6   3  312.55   13.59
   6  -6   3  313.26   16.20
   6   6   3  328.79   17.25
   6  -6   3  297.91   13.30
   6  -6   3  312.36   14.49
   6  -6   3  355.37   15.23
   6   6   3  286.58   14.62
   6   6   3  296.13   13.88
   6   6   3  296.78   14.50
   6  -6   4  125.28    7.18
   6   6   4  125.16    7.45
   6  -6   4  144.18    7.76
   6   6   4  118.28    7.23
   6  -6   4  118.78    7.23
   6   6   4  155.32    9.99
   6  -6   4  121.50    8.53
   6   6   4  131.62    6.45
   6  -6   4  122.06    6.14
   6   6   5   22.46    2.72
   6  -6   5   32.76    3.01
   6  -6   5   34.81    3.27
   6   6   5   32.90    2.41
   6  -6   5   29.84    2.15
   6  -6   5   31.44    3.01
   6   6   5   29.83    2.97
   6   6   6   43.66    3.90
   6  -6   6   52.14    4.18
   6   6   6   41.55    3.75
   6   6   6   45.05    3.06
   6  -6   6   41.43    2.76
   6  -6   6   44.92    3.70
   6   6   6   43.47    3.18
   6  -6   7   23.21    2.73
   6  -6   7   18.35    2.30
   6   6   7   17.24    2.41
   6   6   7   19.13    2.49
   6  -6   7   16.17    1.55
   6   6   7   16.59    1.73
   6  -6   7   14.00    2.04
   6   6   7   18.53    1.93
   6  -6   8  192.13   10.07
   6  -6   8  209.83   10.84
   6   6   8  190.99   10.49
   6   6   8  180.49    9.06
   6  -6   8  162.71    9.64
   6   6   8  187.89    9.32
   6  -6   9   60.22    4.56
   6  -6   9   52.42    4.14
   6   6   9   61.43    4.01
   6   6   9   54.97    4.65
   6  -6  10  148.42    8.49
   6  -6  10  139.37    8.04
   6   6  10  147.59    8.97
   6   6  10  158.20    7.97
   6   6  11   83.55    5.16
   6  -6  11   79.97    5.60
   6  -6  11   98.54    6.53
   6   6  12   45.05    3.39
   6   6  12   46.29    4.37
   6  -6  12   46.50    3.76
   6  -6  12   51.65    4.39
   6  -6  13   39.97    3.70
   6   6  13   42.10    4.00
   6  -6  13   34.33    3.08
   6   6  13   38.87    3.69
   6  -6  14    1.19    0.98
   6   6  14    0.59    0.90
   6  -6  14    0.23    0.58
   6   6  14    1.59    1.06
   6  -6  15    0.14    0.79
   6   6  15    0.50    0.72
   6   6  15    0.77    0.76
   6  -6  15    0.26    0.25
   6   6  16  135.71    7.40
   6  -6  16  148.70    7.29
   6   6  16  125.88    7.33
   6   6  17  259.49    5.93
   6   6  17    0.44    0.23
   6   6  18    1.65    0.47
  -6   7  21    5.76    0.97
  -6   7  21    7.68    1.32
  -6   7  21    0.20    0.16
  -6   7  21    6.38    0.79
  -6   7  21    0.54    0.26
   6   7 -21   -0.10    0.06
  -6   7  20    2.18    0.92
  -6  -7  20    0.93    0.34
   6   7 -20    0.91    0.43
   6  -7 -20    1.44    0.71
  -6   7  20    1.31    0.53
   6   7 -19  139.84    7.22
  -6   7  19  160.95    8.69
  -6   7  19  175.22    7.93
  -6  -7  19  151.40    7.17
  -6   7  19  138.17    7.24
   6   7 -18   44.08    3.09
  -6   7  18   54.10    4.31
   6   7 -17   23.73    2.15
  -6   7  17   23.77    2.85
  -6   7  16    3.08    1.36
  -6  -7  16    4.09    1.67
  -6   7  16    3.98    2.06
   6   7 -16    1.32    0.65
  -6   7  16    1.75    1.17
  -6   7  15   49.93    6.83
  -6   7  15   54.46    8.18
  -6  -7  15   52.32    8.54
  -6   7  15   66.94    5.00
  -6  -7  15   50.39    5.70
   6   7 -15   57.71    3.83
   6   7 -15   59.85    7.75
  -6   7  14  200.73   14.97
  -6   7  14  203.59   17.15
  -6   7  14  215.99   11.22
  -6  -7  14  207.19   13.36
  -6   7  14  179.41   13.41
   6   7 -14  189.03    9.71
   6  -7 -14  212.39   15.89
   6   7 -14  198.86   15.70
  -6   7  13  142.96   12.11
  -6   7  13  147.90   14.12
  -6   7  13  161.29    9.04
  -6   7  13  144.79   11.49
   6   7 -13  140.32    7.66
   6  -7 -13  169.21   13.58
   6   7 -13  157.43   13.54
   6  -7 -12   20.79    4.54
   6   7 -12   27.66    5.16
  -6   7  12   20.30    2.64
   6  -7 -12   17.94    1.95
  -6   7  12   27.73    5.62
   6   7 -12   18.64    1.94
  -6   7  12   25.32    4.38
  -6   7  11  263.67   20.17
  -6   7  11  285.52   14.13
   6   7 -11  255.01   12.65
   6  -7 -11  291.26   18.95
   6   7 -11  273.23   19.22
   6  -7 -11  290.44   13.04
  -6   7  10    4.81    1.60
  -6   7  10    2.04    1.03
   6   7 -10    1.82    0.62
   6  -7 -10    2.80    1.59
   6   7 -10    1.25    1.25
   6  -7 -10    2.40    0.88
  -6   7   9    3.36    1.44
  -6   7   9    3.75    1.19
   6   7  -9    3.66    0.80
   6  -7  -9    4.86    1.01
   6  -7  -9    3.20    1.85
   6   7  -9    3.01    1.85
   6  -7  -8  616.57   31.13
   6   7  -8  562.22   31.43
  -6   7   8  595.69   26.14
   6  -7  -8  568.32   25.11
  -6   7   8  551.05   28.67
   6  -7  -7  152.90    7.24
   6   7  -7  159.72   12.92
   6  -7  -7  178.50   12.73
  -6   7   7  170.09    8.90
   6  -7  -7  155.03    8.11
  -6   7   7  164.41   11.34
   6  -7  -6    8.92    0.93
   6  -7  -6   10.80    2.79
   6   7  -6   10.43    2.93
   6  -7  -5  154.56    8.69
   6  -7  -5  158.53    8.45
   6   7  -5  162.24    8.02
   6  -7  -5  158.21   11.79
   6   7  -5  156.26   12.47
   6  -7  -4  400.46   18.10
   6  -7  -4  385.28   18.84
   6  -7  -4  428.89   18.78
   6   7  -4  423.42   18.27
   6  -7  -4  445.82   23.16
   6   7  -4  386.51   23.33
   6  -7  -3  285.62   12.96
   6  -7  -3  257.89   13.48
   6  -7  -3  287.82   13.47
   6   7  -3  285.92   12.98
   6  -7  -3  304.04   17.37
   6   7  -3  250.57   17.36
   6  -7  -2   46.28    3.44
   6  -7  -2   40.09    3.40
   6  -7  -2   37.19    2.91
   6  -7  -2   43.11    5.25
   6   7  -2   38.04    5.45
   6  -7  -1  432.71   19.83
   6   7  -1  394.64   24.42
   6  -7  -1  484.99   24.52
   6  -7  -1  476.39   20.34
   6  -7  -1  443.30   21.39
   6   7   0   71.83    4.47
   6  -7   0   79.81    4.88
   6  -7   0   69.81    3.74
   6   7   0   83.55    6.42
   6  -7   0   73.97    5.65
   6  -7   0   75.90    4.68
   6   7   1    4.03    0.86
   6  -7   1    3.83    1.04
   6  -7   1    5.70    1.43
   6  -7   1    4.17    0.63
   6   7   1    4.29    1.49
   6   7   1    3.65    1.05
   6  -7   1    2.84    0.87
   6   7   1    6.45    1.14
   6   7   1    4.84    0.98
   6   7   2  482.45   19.88
   6  -7   2  450.38   20.70
   6  -7   2  436.86   21.66
   6  -7   2  431.92   19.01
   6   7   2  501.45   23.05
   6   7   2  452.58   20.46
   6  -7   2  445.32   20.28
   6   7   2  453.73   19.94
   6   7   2  434.45   20.15
   6  -7   3  875.86   39.34
   6   7   3  858.82   39.09
   6  -7   3  959.15   39.22
   6  -7   3  892.07   37.72
   6  -7   3  928.61   40.79
   6   7   3  987.48   42.06
   6   7   3  931.54   38.01
   6   7   3  975.18   38.58
   6   7   3  905.56   38.57
   6   7   3  861.54   38.97
   6  -7   4   12.72    1.90
   6  -7   4   13.94    1.88
   6  -7   4   10.35    1.11
   6   7   4   10.59    1.23
   6   7   4   10.23    1.68
   6  -7   4   11.04    1.81
   6   7   4    9.73    1.63
   6  -7   5  203.94   10.26
   6  -7   5  216.97   10.55
   6   7   5  164.02    9.94
   6   7   5  186.82   10.23
   6  -7   5  189.67   10.28
   6  -7   5  193.33    8.85
   6   7   5  192.03    9.09
   6   7   6    5.78    0.96
   6  -7   6    6.40    0.89
   6  -7   6    6.44    1.48
   6   7   6    7.31    1.52
   6  -7   6    4.64    1.27
   6   7   6    2.97    1.07
   6  -7   7   10.34    1.19
   6   7   7   13.07    1.42
   6  -7   7   12.18    1.95
   6   7   7    8.51    1.79
   6   7   7   11.39    1.90
   6  -7   7   11.41    1.83
   6   7   8   18.87    2.57
   6  -7   8   20.36    2.46
   6   7   8   21.12    2.69
   6  -7   8   20.33    2.50
   6  -7   8   23.54    2.78
   6   7   9  150.09    9.13
   6  -7   9  142.45    8.46
   6  -7   9  179.34    9.39
   6  -7   9  156.14    8.80
   6   7   9  147.26    9.05
   6  -7  10   54.57    4.30
   6   7  10   63.11    4.23
   6   7  10   67.37    5.20
   6   7  10   62.84    5.10
   6  -7  10   62.03    4.68
   6  -7  10   66.23    5.03
   6  -7  11   47.23    3.71
   6   7  11   59.65    4.77
   6   7  11   53.39    3.79
   6  -7  11   60.58    4.65
   6  -7  11   49.03    4.02
   6   7  11   47.84    4.37
   6   7  12  100.52    5.71
   6  -7  12   88.65    5.87
   6   7  12   93.39    6.48
   6  -7  12  105.15    6.52
   6  -7  13    3.77    1.20
   6   7  13    3.93    1.28
   6  -7  13    2.17    0.87
   6   7  14   10.15    1.81
   6  -7  14   11.62    1.51
   6  -7  14   12.71    1.72
   6   7  15   63.26    3.89
   6  -7  15   62.02    3.43
   6  -7  15   27.59    2.29
   6   7  15   20.45    2.41
   6   7  16  109.52    6.13
   6   7  17   73.95    4.25
  -6   8  21   11.11    1.11
  -6   8  20   87.00    4.92
  -6   8  20  103.78    4.93
   6  -8 -20   99.00    5.04
  -6   8  20  100.48    5.70
  -6   8  19    3.63    1.14
   6   8 -19    3.30    0.70
  -6   8  19    4.04    0.93
  -6   8  19    3.49    0.90
   6  -8 -19    3.72    0.90
  -6   8  18   29.42    2.94
   6   8 -18   24.41    1.99
  -6   8  17  107.29    6.80
   6   8 -17  105.80    5.18
   6   8 -17   91.71    5.38
   6   8 -16  836.00   36.74
  -6   8  16  951.69   38.68
  -6  -8  15    1.94    1.58
  -6   8  15    1.05    0.97
   6   8 -15    1.99    0.78
  -6   8  15    2.25    1.59
  -6   8  15   -0.84    0.06
  -6   8  14  381.98   18.09
  -6  -8  14  347.58   26.65
  -6   8  14  383.43   25.77
   6   8 -14  353.52   16.45
  -6   8  14  372.53   22.41
  -6   8  13    2.99    1.21
  -6  -8  13    3.56    1.43
  -6   8  13    3.40    2.20
   6   8 -13    2.41    0.82
  -6   8  13    4.78    2.04
   6  -8 -12   53.37    3.68
  -6   8  12   47.89    6.24
  -6   8  12   61.04    8.89
   6   8 -12   50.18    3.52
   6   8 -12   47.54    6.52
  -6   8  12   54.80    4.56
   6  -8 -11    0.75    0.64
  -6   8  11    0.95    0.95
  -6   8  11    0.84    1.69
  -6   8  11    2.07    1.07
   6   8 -11    0.99    0.60
   6   8 -11    0.59    0.68
  -6   8  11    0.21    0.71
   6  -8 -10   22.07    2.22
  -6   8  10   20.10    3.71
  -6   8  10   20.32    3.70
   6   8 -10   22.12    2.05
   6   8 -10   18.53    3.88
  -6   8  10   24.87    2.87
   6  -8  -9    2.01    0.78
  -6   8   9    0.80    0.81
  -6   8   9    3.00    1.49
   6   8  -9    3.38    1.59
  -6   8   9    1.36    0.90
   6   8  -9    1.20    0.57
   6  -8  -8  295.01   13.86
   6  -8  -8  320.81   14.52
  -6   8   8  275.21   17.44
   6   8  -8  268.16   13.24
   6  -8  -8  326.55   19.05
   6   8  -8  298.85   19.19
  -6   8   8  324.26   15.02
   6   8  -7   11.64    1.50
  -6   8   7   15.87    2.20
  -6   8   7   14.17    3.03
   6  -8  -7   13.47    3.22
   6   8  -7    8.43    2.63
   6  -8  -7   13.61    1.70
   6  -8  -7   14.26    1.96
   6   8  -6    1.26    0.66
   6  -8  -6    3.95    1.90
   6   8  -6    1.51    1.01
   6   8  -5   31.90    2.58
   6  -8  -5   30.12    4.56
   6   8  -5   36.83    5.14
   6  -8  -5   31.44    3.07
   6   8  -4    3.59    0.89
   6  -8  -4    6.06    1.34
   6  -8  -4    2.82    1.48
   6   8  -4    4.68    1.88
   6  -8  -4    4.84    1.26
   6  -8  -3    0.55    0.58
   6  -8  -3    1.65    0.88
   6   8  -3    1.23    0.59
   6  -8  -3    3.12    1.56
   6  -8  -3    1.37    0.80
   6  -8  -2  416.65   18.94
   6  -8  -2  419.32   19.70
   6  -8  -2  443.05   19.59
   6  -8  -2  393.27   20.03
   6   8  -2  462.50   19.09
   6  -8  -2  470.31   23.33
   6   8  -1    9.58    1.92
   6  -8  -1    6.51    1.45
   6  -8  -1    8.84    1.65
   6  -8  -1    9.49    1.61
   6  -8  -1    9.16    1.37
   6  -8   0    2.90    0.96
   6   8   0    1.28    0.78
   6   8   0    1.18    0.54
   6  -8   0    3.99    1.04
   6  -8   0    3.10    0.93
   6   8   1  122.40    8.28
   6  -8   1  113.77    7.58
   6  -8   1  118.99    6.83
   6   8   1  123.44    6.70
   6   8   1  125.58    6.57
   6  -8   2   28.49    2.97
   6  -8   2   28.16    3.21
   6   8   2   31.49    3.67
   6   8   2   29.80    2.61
   6   8   2   30.41    2.50
   6   8   2   27.11    2.55
   6  -8   2   31.07    2.82
   6  -8   3   32.57    3.24
   6   8   3   34.24    2.70
   6   8   3   26.51    2.68
   6  -8   3   33.57    3.01
   6  -8   4  420.14   19.61
   6  -8   4  447.53   19.38
   6   8   4  369.37   18.83
   6   8   4  447.81   18.72
   6   8   4  387.91   19.02
   6  -8   5  257.53   12.80
   6   8   5  227.98   12.14
   6  -8   5  255.01   12.48
   6  -8   5  234.19   10.84
   6   8   5  262.48   11.91
   6   8   5  242.64   12.40
   6  -8   6    0.86    0.80
   6  -8   6    0.14    0.29
   6   8   6    0.18    0.67
   6   8   6    1.15    0.63
   6  -8   6    1.90    1.01
   6   8   6    2.53    0.89
   6   8   7    5.26    1.41
   6   8   7    7.48    1.33
   6  -8   7    5.65    1.40
   6   8   7    5.48    1.31
   6   8   8    1.82    1.02
   6  -8   8    0.55    0.82
   6   8   8    2.93    1.08
   6  -8   9   10.08    1.85
   6   8   9   10.97    2.02
   6  -8   9    8.57    1.63
   6   8   9    7.83    1.62
   6  -8  10 1157.72   46.48
   6   8  10 1034.19   46.37
   6   8  10 1153.27   47.09
   6  -8  10 1009.90   45.91
   6  -8  11    3.08    1.18
   6   8  11    4.04    1.39
   6  -8  11    4.96    1.12
   6   8  11    3.06    1.11
   6  -8  12    2.52    0.95
   6   8  12    2.68    1.15
   6  -8  12    0.23    0.19
   6   8  12    2.51    0.99
   6   8  13    1.41    0.91
   6  -8  13    1.81    0.88
   6   8  13    0.89    0.64
   6  -8  14   19.01    1.92
   6  -8  15    1.70    0.60
   6   8  17    1.24    0.48
  -6   9  22  123.88    6.08
  -6   9  21    0.90    0.34
   6   9 -20    0.14    0.09
  -6   9  20  224.89    5.02
   6  -9 -19   18.26    1.79
   6   9 -19   14.96    1.36
  -6   9  19   18.64    2.20
  -6   9  19   17.64    1.80
  -6   9  19   15.04    1.61
   6   9 -18    4.40    0.83
  -6   9  18    5.86    1.42
  -6   9  18    4.00    0.90
   6  -9 -18    5.91    1.13
  -6   9  18    6.23    1.20
   6   9 -17  160.31    8.24
  -6   9  17  197.95   10.01
  -6   9  17  155.78    8.62
   6  -9 -17  202.96    9.27
   6   9 -16  126.19    6.18
   6   9 -16  124.58    6.56
  -6   9  16  136.77    8.03
  -6   9  16  118.95    6.87
   6  -9 -16  133.35    7.28
   6   9 -15  108.38    5.54
  -6   9  15  101.28    6.08
   6   9 -15  105.42    5.84
  -6   9  15  113.15    7.28
   6  -9 -15  108.01    6.45
   6  -9 -14    5.64    1.29
  -6   9  14    4.71    1.92
  -6   9  14    3.50    2.03
   6   9 -14    5.20    1.03
  -6   9  14    4.34    1.47
  -6  -9  14    6.08    2.87
   6   9 -14    5.19    0.93
   6  -9 -13   16.05    2.12
  -6   9  13   16.76    3.57
  -6   9  13   24.84    5.64
   6   9 -13   15.08    1.74
  -6   9  13   17.16    2.57
   6   9 -13   14.77    1.58
   6  -9 -12   56.80    4.28
   6   9 -12   52.45    3.43
   6  -9 -12   54.88    3.77
  -6   9  12   55.95    6.61
  -6   9  12   47.28    8.07
   6   9 -12   50.23    3.59
  -6  -9  12   51.98    9.33
  -6   9  12   60.15    4.85
  -6   9  12   51.79    3.68
   6   9 -11   82.76    4.83
   6  -9 -11   88.19    5.25
  -6   9  11   88.53    8.29
  -6   9  11   73.54   10.31
  -6   9  11   76.97    7.82
   6   9 -11   83.19    5.00
  -6   9  11   91.02    6.33
   6  -9 -11   94.02    5.85
   6   9 -10   46.25    3.17
   6  -9 -10   51.27    3.61
  -6   9  10   48.94    5.76
  -6   9  10   35.06    5.26
   6   9 -10   42.82    3.20
  -6   9  10   47.06    4.24
   6  -9 -10   50.38    3.99
   6   9  -9  102.30    5.61
   6  -9  -9  100.03    5.95
  -6   9   9   84.58    8.03
  -6   9   9  100.36    9.20
   6   9  -9   99.24    5.62
  -6   9   9  116.30    7.20
   6  -9  -9  108.15    6.55
   6   9  -8  248.47   11.97
   6  -9  -8  270.71   12.55
  -6   9   8  254.94   15.39
  -6   9   8  247.41   16.58
   6   9  -8  241.33   11.89
  -6   9   8  270.94   13.68
   6  -9  -8  285.47   13.21
   6  -9  -7   58.81    4.11
  -6   9   7   54.54    5.59
  -6   9   7   64.77    7.11
   6   9  -7   61.62    3.87
   6   9  -7   53.24    3.60
   6  -9  -7   67.43    4.67
  -6   9   6    3.63    1.44
   6  -9  -6    1.83    1.04
   6   9  -6    1.61    0.72
   6   9  -6    2.99    0.73
   6  -9  -5  187.87    9.88
   6   9  -5  187.67    8.87
   6   9  -5  166.02    8.38
  -6   9   5  162.14   10.57
   6  -9  -4   43.01    3.81
   6   9  -4   47.56    3.33
   6  -9  -3  486.81   22.09
   6  -9  -3  482.79   23.06
   6   9  -3  531.89   22.29
   6  -9  -3  516.49   22.99
   6  -9  -2  121.26    6.68
   6  -9  -2  119.52    7.38
   6   9  -2  126.56    6.75
   6  -9  -2  120.58    7.18
   6  -9  -1   50.22    3.70
   6  -9  -1   51.81    4.24
   6   9  -1   54.64    3.75
   6  -9  -1   54.44    4.13
   6   9   0   41.16    3.00
   6  -9   0   34.06    3.39
   6  -9   0   37.27    3.12
   6   9   1  193.81    9.40
   6  -9   1  181.70    9.70
   6   9   2  117.25    6.31
   6  -9   2  105.86    6.55
   6  -9   3  600.79   25.86
   6   9   3  616.85   25.28
   6  -9   3  571.32   26.24
   6   9   3  519.58   25.23
   6  -9   4  638.02   27.72
   6   9   4  669.24   27.17
   6  -9   4  601.22   28.01
   6   9   4  568.08   27.27
   6  -9   5   22.89    2.63
   6   9   5   23.18    2.31
   6  -9   5   17.76    2.54
   6   9   5   22.62    2.54
   6  -9   6  158.52    8.78
   6   9   6  158.17    8.19
   6  -9   6  149.39    8.92
   6   9   6  143.04    8.58
   6  -9   7    3.38    1.25
   6   9   7    1.23    0.71
   6  -9   7    1.56    1.03
   6   9   7    1.14    0.88
   6   9   8   59.43    4.12
   6  -9   8   51.99    4.44
   6   9   8   59.52    4.68
   6   9   9  177.60    8.91
   6  -9   9  150.52    9.06
   6   9   9  172.59    9.65
   6  -9  10   34.36    3.31
   6   9  10   44.89    3.32
   6  -9  10   35.04    3.28
   6   9  10   36.71    3.61
   6   9  11   54.31    4.41
   6  -9  11   49.54    3.82
   6  -9  11   53.99    4.05
   6   9  12   13.56    2.00
   6  -9  12   10.72    1.60
   6   9  13    0.97    0.79
   6  -9  13    0.36    0.65
   6   9  14  115.25    6.56
   6  -9  14  108.24    5.88
   6   9  15   48.73    3.28
   6  -9  15   34.87    2.43
  -6  10  20   61.05    3.50
  -6  10  19    3.28    0.95
   6  10 -19    1.58    0.42
  -6  10  19    3.69    0.84
   6 -10 -18   99.03    5.37
  -6  10  18  104.44    6.12
  -6  10  18   92.93    5.11
  -6  10  18  107.37    5.71
   6  10 -17   42.59    2.86
  -6  10  17   48.57    3.99
  -6  10  17   44.11    3.14
   6 -10 -17   49.39    3.46
   6  10 -16   41.48    2.95
  -6  10  16   51.56    4.21
  -6  10  16   49.33    3.33
   6 -10 -16   43.68    3.45
   6  10 -15  104.69    5.35
   6  10 -15  105.29    5.74
  -6  10  15  120.46    7.32
  -6  10  15  103.71    5.97
   6 -10 -15  109.60    6.41
   6  10 -14   18.24    1.65
  -6  10  14   17.20    1.92
   6  10 -14   17.87    1.84
  -6  10  14   18.37    2.64
   6 -10 -14   20.20    2.36
  -6  10  13    3.01    0.87
   6 -10 -13    4.57    1.23
  -6  10  13    5.72    2.06
  -6  10  13    9.05    3.47
   6  10 -13    4.94    1.00
  -6  10  13    4.68    1.51
  -6 -10  13    2.06    1.69
   6  10 -13    4.00    0.85
   6  10 -12  168.35    8.12
   6 -10 -12  179.92    8.68
  -6  10  12  149.78   11.85
  -6  10  12  131.93   14.77
   6  10 -12  153.78    8.31
  -6  10  12  177.51   10.07
   6 -10 -12  173.02    9.24
   6  10 -11   22.75    1.95
   6 -10 -11   20.11    2.15
  -6  10  11   20.04    3.64
  -6  10  11   22.48    5.57
  -6  10  11   16.96    3.45
   6  10 -11   15.95    1.84
  -6  10  11   20.87    2.85
   6 -10 -11   22.89    2.58
   6  10 -10  200.51   10.06
   6 -10 -10  233.27   10.81
  -6  10  10  175.19   13.22
  -6  10  10  236.81   19.52
  -6  10  10  208.90   15.01
   6  10 -10  205.59   10.32
  -6  10  10  234.10   12.18
   6 -10 -10  235.34   11.45
   6  10  -9  228.64   10.82
   6 -10  -9  240.84   11.44
  -6  10   9  212.68   14.04
  -6  10   9  205.75   15.39
   6  10  -9  214.11   10.87
  -6  10   9  249.05   12.79
   6 -10  -9  249.07   12.08
   6  10  -8    9.94    1.37
   6 -10  -8   12.91    1.74
  -6  10   8   12.75    2.65
  -6  10   8    9.14    2.81
   6  10  -8   10.81    1.43
  -6  10   8   11.40    2.17
   6 -10  -8    7.46    1.67
  -6  10   7  189.27   12.46
  -6  10   7  204.45   14.97
   6  10  -7  190.63    9.89
   6  10  -7  215.73   10.07
   6  10  -6    2.17    0.68
   6  10  -6    1.53    0.72
   6 -10  -6    2.51    1.17
   6 -10  -5    9.94    1.88
   6  10  -5   11.25    1.48
   6 -10  -5   10.19    1.80
   6  10  -5   11.31    1.35
   6 -10  -4  335.08   16.02
   6  10  -4  352.07   14.97
   6 -10  -3  131.19    7.60
   6  10  -3  123.93    6.61
   6  10  -3  110.24    6.10
   6 -10  -2  141.66    7.39
   6  10  -2  123.47    6.79
   6 -10  -2  140.10    8.20
   6  10  -2  148.33    7.48
   6 -10  -1    4.90    1.12
   6  10  -1    6.49    0.98
   6 -10  -1    5.17    1.35
   6  10  -1    8.19    1.26
   6  10  -1    6.71    1.32
   6  10   0   53.69    3.53
   6 -10   0   58.99    4.16
   6  10   0   60.11    3.92
   6 -10   0   57.21    4.60
   6  10   0   61.91    4.14
   6  10   1   17.36    1.66
   6 -10   1   17.98    2.15
   6 -10   1   14.86    2.27
   6  10   1   18.14    1.94
   6  10   2  143.42    7.55
   6 -10   2  165.43    8.67
   6  10   2  167.87    8.26
   6  10   3  141.29    7.28
   6  10   3  170.38    8.12
   6 -10   3  166.77    8.58
   6  10   3  128.59    7.74
   6 -10   4  129.40    7.38
   6  10   4  121.96    6.80
   6 -10   4  121.12    7.71
   6  10   4  112.92    6.87
   6 -10   5  138.35    8.46
   6 -10   5  155.22    9.08
   6  10   5  143.30    8.35
   6 -10   6   10.41    1.84
   6  10   6   12.44    1.70
   6 -10   6    9.98    1.88
   6  10   6    8.93    1.60
   6 -10   7    6.69    1.53
   6  10   7    4.16    1.10
   6 -10   7    2.77    1.20
   6  10   7    4.32    1.28
   6 -10   8  121.37    7.28
   6  10   8  124.66    6.90
   6 -10   8  110.33    7.27
   6  10   8  122.74    7.44
   6  10   9   39.37    3.17
   6 -10   9   35.77    3.41
   6  10   9   37.96    3.58
   6  10  10   75.57    4.64
   6 -10  10   59.41    4.56
   6  10  10   67.12    4.98
   6 -10  11   61.64    4.43
   6 -10  11   54.91    4.17
   6  10  11   65.73    4.81
   6  10  12  209.21    9.19
   6 -10  12  192.33    8.45
   6 -10  13    1.83    0.77
   6  10  13    3.30    0.97
   6 -10  14    8.35    1.14
   6  10  14    9.54    1.42
   6 -10  15   20.83    1.65
   6  10  15   31.13    2.31
  -6  11  20   31.68    2.09
  -6  11  19   16.19    1.43
   6  11 -19    0.35    0.14
   6  11 -18    1.94    0.49
  -6  11  18    1.83    0.82
  -6  11  18    2.16    0.72
  -6  11  17   67.13    4.72
   6  11 -17   58.15    3.48
   6 -11 -17   71.92    4.19
  -6  11  16   28.96    2.99
   6  11 -16   22.72    1.95
   6 -11 -16   29.23    2.56
  -6  11  15  212.17   10.63
   6 -11 -15  200.84    9.66
  -6  11  14   10.88    2.05
   6 -11 -14    8.36    1.53
   6  11 -14    7.93    1.18
   6 -11 -13    8.26    1.53
   6  11 -13    7.22    1.18
  -6  11  13    9.23    1.91
   6  11 -13    8.04    1.06
   6 -11 -12   71.45    4.86
  -6  11  12   68.69    9.68
   6  11 -12   56.97    3.94
  -6  11  12   72.10    5.49
   6  11 -12   62.06    3.72
   6  11 -11    0.63    0.56
   6 -11 -11    0.90    0.68
  -6  11  11    1.22    1.05
  -6  11  11    3.80    2.20
  -6  11  11    2.09    1.21
   6  11 -11    0.34    0.57
  -6 -11  11    3.12    2.41
  -6  11  11    2.07    1.25
   6 -11 -11    1.21    0.96
   6  11 -10  174.37    8.59
   6 -11 -10  188.19    9.28
  -6  11  10  160.42   11.71
  -6  11  10  179.17   13.60
   6  11 -10  167.67    8.81
  -6  11  10  196.30   10.78
  -6 -11  10  181.03   17.71
   6 -11 -10  181.90    9.81
   6  11  -9  188.75    9.23
   6 -11  -9  200.54    9.91
  -6  11   9  172.49   12.12
   6 -11  -9  197.61   10.48
  -6  11   9  196.30   14.56
  -6  11   9  206.68   11.25
  -6 -11   9  170.29   17.42
   6  11  -9  186.85    9.44
   6 -11  -8   61.47    4.23
   6 -11  -8   62.25    4.67
  -6  11   8   51.88    6.91
   6  11  -8   60.76    3.76
  -6  11   8   58.27    4.97
  -6 -11   8   45.94    8.31
   6  11  -8   50.68    3.72
  -6  11   7   23.37    4.53
   6  11  -7   26.98    2.27
   6  11  -7   21.89    2.13
   6 -11  -7   23.09    2.78
   6 -11  -6   30.76    3.18
   6  11  -6   30.63    2.50
   6  11  -6   27.96    2.41
  -6  11   6   21.46    4.45
   6  11  -5  118.09    6.70
   6 -11  -5  138.55    8.06
   6  11  -5  131.53    6.91
   6 -11  -5  136.73    7.93
   6 -11  -4    5.55    1.49
   6  11  -4    4.69    0.93
   6  11  -4    4.62    1.06
   6 -11  -4    2.77    1.29
   6 -11  -3 1144.50   47.32
   6  11  -3 1153.02   46.07
   6  11  -3 1022.49   45.53
   6 -11  -2  153.95    8.19
   6  11  -2  172.76    8.22
   6 -11  -2  160.83    9.22
   6  11  -2  163.72    8.34
   6  11  -2  145.02    7.85
   6 -11  -1  102.75    6.31
   6 -11  -1  112.12    7.22
   6  11  -1  119.11    6.29
   6  11  -1  123.00    6.60
   6  11  -1  108.44    6.01
   6 -11   0   70.00    4.81
   6 -11   0   71.38    5.49
   6  11   0   77.64    4.67
   6  11   0   75.06    4.42
   6 -11   1  255.92   12.66
   6  11   1  243.56   11.84
   6 -11   1  258.44   13.45
   6  11   1  276.86   12.38
   6  11   2    4.20    0.88
   6 -11   2    5.64    1.52
   6  11   2    4.59    1.03
   6 -11   2    5.84    1.30
   6  11   3   57.09    3.77
   6  11   3   67.17    4.33
   6 -11   3   71.27    4.82
   6  11   4   40.76    3.09
   6 -11   4   34.70    3.26
   6 -11   5  101.22    6.23
   6  11   5  101.85    5.77
   6 -11   5   94.46    6.50
   6  11   5   79.17    5.53
   6 -11   6    3.97    1.27
   6  11   6    5.30    1.20
   6 -11   6    3.27    1.28
   6  11   6    3.91    1.10
   6 -11   7   70.88    5.02
   6  11   7   72.25    4.66
   6 -11   7   69.45    5.23
   6  11   7   63.48    4.74
   6 -11   8   19.16    2.41
   6  11   8   26.84    2.48
   6 -11   8   20.25    2.55
   6  11   8   18.39    2.30
   6 -11   9   27.75    2.79
   6  11   9   30.46    2.65
   6 -11   9   23.91    2.71
   6  11   9   23.44    2.63
   6 -11  10    1.04    0.73
   6  11  10    2.13    0.81
   6  11  10    1.61    0.89
   6 -11  11   87.62    5.40
   6  11  11   95.08    5.81
   6  11  12    2.33    0.90
   6 -11  12    1.37    0.57
   6 -11  12    2.05    0.84
   6  11  13    6.80    1.24
   6 -11  13    6.26    1.08
   6  11  14   46.32    3.18
   6 -11  14   48.02    2.91
   6  11  15   83.14    4.38
  -6  12  19   69.52    3.83
   6  12 -18    0.16    0.09
  -6  12  18    0.64    0.49
  -6  12  17  247.58   10.83
  -6  12  17  255.65   11.31
   6  12 -16   23.23    1.92
   6 -12 -16   31.19    2.49
   6  12 -15    6.05    0.97
  -6  12  15    7.35    1.56
   6 -12 -15    7.38    1.27
   6  12 -14   27.73    2.28
   6 -12 -14   32.05    2.83
   6  12 -13    2.61    0.73
  -6  12  13    3.55    1.28
   6 -12 -13    3.28    1.09
   6  12 -12   27.97    2.08
   6 -12 -12   32.93    3.02
  -6  12  12   31.18    3.39
   6  12 -12   25.86    2.29
   6 -12 -11  263.13   11.90
   6 -12 -11  244.27   12.42
   6  12 -11  242.68   11.17
  -6  12  11  258.25   13.48
   6  12 -11  230.10   11.48
   6 -12 -10  404.07   17.42
   6 -12 -10  416.57   18.22
  -6  12  10  361.39   22.59
   6  12 -10  358.79   16.58
  -6  12  10  395.27   19.07
  -6 -12  10  414.98   28.38
   6  12 -10  355.04   16.93
   6 -12  -9  147.34    7.86
   6 -12  -9  147.13    8.38
  -6  12   9  135.54   14.42
  -6  12   9  139.82   12.11
   6  12  -9  141.85    7.20
  -6  12   9  161.51    9.34
  -6 -12   9  127.19   14.61
   6  12  -9  136.04    7.42
   6 -12  -8   73.25    4.90
   6 -12  -8   74.13    5.32
  -6  12   8   81.49    8.79
   6  12  -8   76.17    4.42
  -6  12   8   81.13    6.07
  -6 -12   8   63.59   10.04
   6  12  -8   70.45    4.52
  -6  12   7   52.84    7.06
   6  12  -7   50.33    3.61
   6  12  -7   54.42    3.57
   6 -12  -7   56.58    4.47
  -6 -12   7   49.45    8.49
  -6  12   7   57.74    4.97
   6  12  -6   44.03    3.33
  -6  12   6   42.05    6.32
   6  12  -6   51.18    3.42
  -6 -12   6   38.49    7.43
   6 -12  -6   58.48    4.48
   6 -12  -5    1.21    0.93
  -6 -12   5    0.88    1.44
   6  12  -5    1.35    0.73
   6  12  -5    1.27    0.67
   6 -12  -5    3.39    1.36
   6 -12  -4   24.39    2.82
   6  12  -4   18.45    1.86
   6 -12  -4   22.74    2.74
   6  12  -4   21.13    2.06
   6  12  -4   18.86    1.95
   6 -12  -3  175.90    9.96
   6  12  -3  184.41    8.75
   6  12  -3  164.99    8.67
   6  12  -3  184.66    8.98
   6  12  -2    1.70    0.74
   6  12  -2    1.52    0.88
   6  12  -2    2.55    0.76
   6 -12  -2    2.63    1.42
   6  12  -1  279.61   12.98
   6 -12  -1  266.06   13.19
   6  12  -1  288.67   13.06
   6 -12  -1  284.29   14.37
   6  12   0   61.92    4.01
   6 -12   0   62.98    4.41
   6  12   0   68.20    4.22
   6 -12   0   67.96    5.18
   6  12   1    7.79    1.20
   6 -12   1    6.94    1.36
   6  12   1    7.86    1.29
   6 -12   1    6.67    1.71
   6  12   2   93.49    5.51
   6 -12   2  105.44    6.32
   6  12   2  107.65    5.95
   6 -12   2  111.75    7.06
   6 -12   3  172.81    9.33
   6  12   3  175.85    8.87
   6 -12   3  167.33    9.89
   6  12   4  133.42    7.14
   6 -12   4  125.94    7.50
   6  12   5  253.48   12.04
   6 -12   5  242.07   12.49
   6 -12   6   67.67    4.80
   6 -12   6   68.50    5.18
   6  12   6   76.48    4.59
   6  12   6   56.84    4.27
   6 -12   7   10.56    1.83
   6 -12   7   11.85    2.01
   6  12   7   15.05    1.81
   6  12   7   10.31    1.60
   6 -12   8    2.09    1.07
   6  12   8    2.01    0.88
   6 -12   8    2.14    1.06
   6  12   8    4.10    1.06
   6 -12   9  162.99    8.57
   6 -12   9  144.69    8.50
   6  12   9  144.29    8.29
   6 -12  10   71.40    4.70
   6 -12  10   69.38    4.71
   6  12  10   68.59    4.66
   6 -12  11   31.59    2.60
   6  12  11   30.60    2.64
   6  12  12   85.72    4.04
   6 -12  12   95.91    4.07
   6  12  13   17.84    1.74
   6 -12  13   21.28    1.77
   6 -12  14   19.79    1.51
  -6  13  18   47.74    2.93
  -6  13  17  221.99    5.36
   6  13 -17    0.12    0.08
  -6  13  16  130.88    6.70
  -6  13  16  119.78    6.21
   6  13 -15    6.23    0.89
   6 -13 -15    6.30    1.05
   6  13 -14   31.88    2.37
   6 -13 -14   36.75    2.87
  -6  13  14   40.54    3.54
   6  13 -13  177.26    8.93
  -6  13  13  208.95   10.71
   6 -13 -13  200.29    9.74
   6 -13 -12    4.15    1.17
   6  13 -12    5.58    0.99
  -6  13  12    3.48    1.41
  -6  13  11    1.50    1.02
   6 -13 -11    0.33    0.60
   6  13 -11   -0.22    0.51
   6  13 -11    0.51    0.56
   6 -13 -11   -0.15    0.73
   6 -13 -10  367.40   17.05
   6  13 -10  350.72   15.68
  -6  13  10  376.57   18.04
   6  13 -10  334.11   16.02
   6 -13 -10  384.05   16.51
   6 -13  -9    3.96    1.09
   6  13  -9    4.34    0.88
   6  13  -9    3.01    0.90
   6 -13  -9    4.57    1.29
   6 -13  -8   56.96    4.45
   6  13  -8   55.82    3.54
   6  13  -8   54.46    3.74
   6 -13  -8   55.11    4.03
  -6 -13   8   71.49    9.62
  -6  13   8   63.84    5.20
   6 -13  -7   18.94    2.41
   6  13  -7   17.75    1.62
   6 -13  -7   16.54    2.04
  -6  13   7   15.86    3.66
   6  13  -7   15.82    1.81
  -6  13   7   17.13    2.61
  -6 -13   7   21.55    5.12
   6  13  -7   16.25    1.70
   6  13  -6    7.31    1.18
   6  13  -6    7.62    1.23
  -6  13   6    6.17    2.27
   6  13  -6    4.38    0.87
  -6 -13   6    6.97    2.86
   6 -13  -6    7.72    1.62
   6  13  -5  251.20   11.51
   6  13  -5  242.64   11.87
  -6  13   5  239.67   17.67
   6  13  -5  263.33   11.85
  -6 -13   5  227.79   19.18
   6  13  -4    4.00    0.84
   6 -13  -4    1.78    1.10
   6  13  -4    2.00    0.75
   6  13  -4    2.81    0.89
  -6 -13   4    0.80    0.93
   6  13  -3   35.91    2.84
   6 -13  -3   38.83    3.64
   6  13  -3   34.37    2.62
   6  13  -2  133.99    7.38
   6  13  -2  145.68    7.29
   6 -13  -2  151.80    8.67
   6  13  -1   10.62    1.45
   6 -13  -1   12.77    1.65
   6  13  -1   13.13    1.54
   6 -13  -1   15.08    2.29
   6  13   0   30.58    2.55
   6 -13   0   30.90    2.75
   6  13   0   32.65    2.60
   6 -13   0   33.01    3.39
   6  13   1   10.61    1.37
   6 -13   1   10.44    1.63
   6  13   1    9.25    1.34
   6 -13   1   10.21    1.97
   6  13   2   57.65    3.79
   6  13   2   62.34    4.01
   6 -13   2   62.85    4.39
   6 -13   2   64.92    5.03
   6  13   3  252.67   11.61
   6 -13   3  229.66   11.97
   6 -13   3  241.07   12.80
   6  13   4  251.96   11.75
   6 -13   4  235.29   12.15
   6 -13   4  247.34   12.93
   6 -13   5    6.89    1.48
   6  13   5    6.84    1.23
   6  13   6   79.77    4.85
   6 -13   6   78.78    5.23
   6 -13   6   83.46    5.72
   6  13   7  255.73   11.95
   6 -13   7  249.12   12.33
   6 -13   7  246.41   12.74
   6  13   8  241.35    6.13
   6 -13   8  239.25    7.32
   6 -13   9  143.55    5.07
   6 -13   9  152.16    5.47
   6 -13  10    1.80    0.79
   6 -13  10    0.60    0.72
   6  13  10    0.39    0.22
   6 -13  11    3.79    0.89
   6 -13  11    5.05    0.96
   6 -13  12    0.20    0.20
   6  13  12    0.13    0.11
   6 -13  13   75.62    3.96
  -6  14  17  122.69    5.99
   6  14 -16    0.11    0.08
  -6  14  16  161.74    4.99
  -6  14  15   22.53    2.22
   6  14 -15   14.65    1.26
  -6  14  14  119.99    6.68
   6  14 -14  104.36    5.31
  -6  14  13  238.81   11.66
   6  14 -13  215.44   10.07
   6 -14 -12    2.58    0.86
   6  14 -12    3.78    0.79
  -6  14  12    4.37    1.32
   6 -14 -11    9.69    1.50
   6  14 -11    7.22    1.11
  -6  14  11    9.15    1.83
   6 -14 -10   31.49    2.95
   6 -14 -10   36.03    2.79
   6  14 -10   35.31    2.63
  -6  14  10   36.58    3.60
   6 -14  -9   20.18    2.10
   6  14  -9   20.56    2.00
  -6  14   9   25.38    2.99
   6 -14  -8  140.33    7.60
   6  14  -8  133.73    7.24
   6  14  -7   76.34    4.58
   6  14  -7   68.41    3.92
   6 -14  -7   81.71    4.95
  -6  14   7   81.64    5.99
   6  14  -6   46.63    2.91
   6  14  -6   50.09    3.43
   6  14  -5    0.22    0.40
   6  14  -5   -0.12    0.44
   6 -14  -4   19.18    2.47
   6  14  -4   16.48    1.57
   6  14  -4   16.38    1.83
   6 -14  -3   16.02    2.22
   6  14  -3   11.99    1.35
   6  14  -3   12.13    1.56
   6 -14  -2  214.29   10.84
   6  14  -2  195.62    9.17
   6  14  -2  180.89    9.45
   6 -14  -1    0.96    1.09
   6  14  -1    2.36    0.71
   6  14  -1    0.67    0.53
   6  14   0  126.13    6.79
   6  14   0  135.52    6.72
   6 -14   0  142.29    8.15
   6 -14   0  122.67    6.89
   6  14   1  386.02   17.86
   6  14   1  411.96   17.86
   6 -14   1  421.13   19.47
   6 -14   1  408.26   18.29
   6  14   2    0.50    0.54
   6 -14   2    0.91    0.80
   6  14   2    0.79    0.66
   6 -14   2    1.53    1.17
   6  14   3   58.51    3.70
   6 -14   3   52.46    3.93
   6 -14   3   59.34    4.65
   6  14   4  191.80    9.20
   6 -14   4  187.92    9.66
   6 -14   4  183.67   10.30
   6 -14   5  170.26    9.14
   6  14   5  183.89    8.78
   6 -14   6    6.98    1.38
   6  14   6    6.30    1.08
   6  14   7   50.96    3.36
   6 -14   7   49.91    3.65
   6 -14   7   51.21    3.97
   6 -14   8    3.14    1.01
   6 -14   8    5.97    1.31
   6  14   8    5.32    0.94
   6 -14   9   93.44    5.36
   6 -14   9   96.18    5.56
   6 -14  10  233.10   10.71
   6 -14  10  224.62   10.76
   6 -14  11  269.41   11.14
   6 -14  11  222.57   10.89
  -6  15  16    2.32    0.50
  -6  15  15   31.10    2.39
  -6  15  15   25.67    2.00
  -6  15  14  109.42    3.66
  -6  15  14  114.10    4.39
   6  15 -13  158.68    7.59
  -6  15  13  191.54    9.05
   6  15 -12   15.60    1.41
  -6  15  12   16.98    2.16
   6  15 -11   54.35    3.35
  -6  15  11   65.77    4.60
   6  15 -10    1.74    0.61
  -6  15  10    2.86    1.17
   6 -15 -10    1.49    0.59
   6  15  -9    7.88    1.11
  -6  15   9    8.66    1.74
   6 -15  -9    6.09    1.11
   6  15  -8  267.25   12.65
  -6  15   8  301.65   14.42
   6 -15  -8  279.49   13.00
   6  15  -7  418.85   18.97
  -6  15   7  455.08   20.79
   6 -15  -7  437.08   19.37
   6  15  -6   80.88    4.76
  -6  15   6   79.72    5.90
   6 -15  -6   83.43    5.08
   6  15  -5    9.46    1.34
   6  15  -4   54.05    3.62
   6  15  -3   10.27    1.12
   6 -15  -3   13.40    2.03
   6  15  -3   10.92    1.40
   6 -15  -2    0.69    0.80
   6  15  -2    1.43    0.49
   6  15  -2    1.06    0.58
   6  15  -1   10.43    1.35
   6  15  -1    8.08    1.06
   6 -15  -1    8.87    1.69
   6  15   0    9.85    1.31
   6 -15   0   13.62    2.07
   6  15   0   11.93    1.28
   6  15   1   64.76    4.03
   6 -15   1   75.11    5.14
   6 -15   1   68.50    4.22
   6  15   1   71.08    3.97
   6 -15   2  297.87   14.01
   6 -15   2  263.82   12.78
   6  15   2  277.17   12.44
   6 -15   3   85.33    5.60
   6 -15   3   77.82    4.81
   6  15   3   82.28    4.49
   6 -15   4   19.75    2.43
   6 -15   4   19.07    1.98
   6  15   4   15.34    1.55
   6 -15   5  167.77    9.08
   6 -15   5  165.68    8.46
   6  15   5  169.49    8.04
   6  15   6    1.18    0.54
   6 -15   6    1.19    0.63
   6  15   7    3.70    0.69
   6 -15   7    2.64    0.68
   6 -15   7    3.26    0.87
   6 -15   8   23.58    2.25
   6 -15   8   24.83    2.11
   6 -15   9    1.27    0.64
   6 -15   9    3.76    0.82
   6 -15  10   85.41    4.77
   6 -15  10   97.72    4.80
   6 -15  11    1.26    0.45
  -6  16  14    0.83    0.38
  -6  16  14    0.42    0.42
  -6  16  13   10.29    1.01
  -6  16  13   12.27    1.40
   6  16 -12   -0.10    0.18
  -6  16  12    0.48    0.58
   6  16 -11   60.44    3.38
  -6  16  11   70.98    4.55
   6  16 -10    1.05    0.44
  -6  16  10    2.04    0.91
  -6  16   9   55.47    4.04
   6 -16  -9   55.01    3.18
   6  16  -8    1.44    0.58
   6 -16  -8    3.36    0.86
  -6  16   8    2.81    1.13
   6 -16  -7   39.11    2.85
  -6  16   7   39.94    3.53
   6  16  -7   35.62    2.59
   6 -16  -6  550.59   23.47
  -6  16   6  576.98   24.72
   6  16  -6  511.75   23.04
   6 -16  -5  256.90   11.69
  -6  16   5  272.96   12.81
   6  16  -4   42.50    2.95
   6  16  -3   50.78    3.31
   6  16  -2   25.83    2.18
   6 -16  -2   32.22    2.90
   6  16  -1   58.44    3.70
   6 -16  -1   70.73    4.65
   6  16   0  376.05   17.44
   6 -16   0  458.06   18.85
   6 -16   1   17.31    2.12
   6  16   1   14.01    1.26
   6  16   2    1.72    0.48
   6 -16   2    1.47    0.87
   6 -16   2    0.40    0.47
   6 -16   3   24.37    2.50
   6 -16   3   21.82    1.88
   6  16   3   19.95    1.57
   6 -16   4   10.28    1.65
   6 -16   4   10.53    1.28
   6  16   4    8.91    0.97
   6 -16   5    0.59    0.53
   6 -16   5    1.16    0.77
   6  16   5    0.95    0.38
   6 -16   6    2.26    0.67
   6 -16   6    2.96    0.91
   6 -16   6    3.13    0.66
   6 -16   7   12.67    1.21
   6 -16   7    0.27    0.18
   6 -16   8   95.49    4.86
   6 -16   9    2.03    0.51
   6 -16   9    1.68    0.55
  -6  17  13   84.09    4.40
  -6  17  12  223.28    8.64
  -6  17  12  157.44    7.62
  -6  17  11    4.01    0.61
  -6  17  11    4.98    0.93
  -6  17  10   60.47    3.11
  -6  17  10   43.77    1.82
  -6  17   9    3.50    0.95
   6  17  -9    0.05    0.17
  -6  17   8   43.78    3.15
   6 -17  -8   41.23    2.24
  -6  17   7  205.93   10.15
   6 -17  -7  207.25    9.17
   6  17  -7  183.72    8.85
  -6  17   6    0.85    0.81
   6 -17  -6    0.86    0.53
   6  17  -6    1.23    0.48
  -6  17   5    0.44    0.65
   6 -17  -5    0.92    0.58
   6  17  -5    1.42    0.52
  -6  17   4  109.65    6.40
   6 -17  -4  117.49    5.80
   6  17  -3    4.55    0.77
   6 -17  -3    5.34    1.04
   6  17  -2   56.70    3.30
   6  17  -1    3.72    0.67
   6 -17   0  309.98   14.37
   6 -17   1   16.14    1.85
   6 -17   2   31.41    2.66
   6 -17   3    2.15    0.81
   6 -17   4    7.92    1.25
   6 -17   5   13.29    1.21
   6 -17   5   14.87    1.36
   6 -17   6    0.19    0.27
   6 -17   6    0.62    0.52
   6 -17   6    0.05    0.31
   6 -17   7  140.76    6.86
  -6  18  11   48.10    2.80
  -6  18  10   31.28    2.24
  -6  18   9    4.07    0.80
  -6  18   8  118.61    6.20
   6 -18  -7    3.77    0.61
  -6  18   7    5.67    0.98
   6 -18  -6    0.30    0.37
  -6  18   6    0.42    0.50
  -6  18   5   20.37    1.84
   6 -18  -5   17.91    1.35
  -6  18   4   13.63    1.60
   6 -18  -4   15.10    1.30
  -6  18   3    0.55    0.60
   6 -18  -3    0.38    0.51
  -6  18   2   45.99    3.35
   6 -18  -2   49.09    3.04
  -6  18   1   29.35    2.51
   6 -18  -1   33.74    2.36
   6 -18   0  186.45    8.74
   6 -18   3    4.46    0.75
   6 -18   4    0.26    0.32
  -6  19   7    0.77    0.36
  -6  19   6    6.67    0.88
  -6  19   5  104.70    5.35
  -6  19   4    1.72    0.53
   6 -19  -4    1.92    0.44
  -6  19   3    0.50    0.37
   6 -19  -3    0.34    0.35
  -6  19   2    3.28    0.69
   6 -19  -2    3.38    0.59
  -6  19   1    0.65    0.37
   6 -19  -1    0.53    0.37
   6 -19   0   40.37    2.38
   6 -19   1   11.90    1.09
  -7   0  24   51.79    3.13
  -7   0  24   51.59    3.03
  -7   0  22    7.76    1.00
  -7   0  22    6.72    1.21
  -7   0  21    0.74    0.71
  -7   0  20  108.15    6.68
  -7   0  19    0.18    0.76
  -7   0  18    0.75    0.82
  -7   0  17    0.54    1.08
  -7   0  17    3.83    1.81
   7   0 -17    0.93    1.52
  -7   0  17    0.19    1.03
  -7   0  16  251.06   12.59
   7   0 -16  215.75   19.46
  -7   0  16  220.97   17.03
  -7   0  15   -0.63    1.03
   7   0 -15   -0.93    2.41
  -7   0  15    1.09    0.81
   7   0 -14  105.27   12.41
  -7   0  14  111.16   10.65
  -7   0  14  103.36    6.55
  -7   0  13    0.16    0.70
   7   0 -13    0.87    1.42
  -7   0  12    1.20    0.78
   7   0 -12    4.15    2.54
  -7   0  11    1.38    0.70
   7   0 -11    1.58    2.04
   7   0 -10  805.45   42.70
   7   0  -9   -0.66    2.03
   7   0  -8 1716.21   74.22
  -7   0   8 1514.25   68.58
   7   0  -7    0.11    0.56
   7   0  -7   -0.61    1.58
   7   0  -6  405.07   18.12
   7   0  -6  415.03   24.74
   7   0  -5    2.07    0.67
   7   0  -5    2.95    1.80
   7   0  -5    0.77    0.38
   7   0  -4   93.23    5.27
   7   0  -4  103.51    9.85
   7   0  -4   89.89    4.71
   7   0  -3    0.11    0.45
   7   0  -3    0.56    1.30
   7   0  -3    1.06    0.42
   7   0  -2  228.66   11.68
   7   0  -2  226.52   10.59
   7   0  -2  251.22   16.60
   7   0  -2  209.35    9.82
   7   0  -1    1.28    0.92
   7   0  -1    0.79    0.60
   7   0  -1   -0.56    1.30
   7   0  -1    1.04    0.41
   7   0   0  548.35   30.02
   7   0   0  531.59   24.48
   7   0   1    0.60    1.38
   7   0   1    0.58    0.55
   7   0   1    2.29    1.03
   7   0   2  633.81   27.27
   7   0   2  630.91   26.03
   7   0   2  605.10   25.21
   7   0   2  661.97   29.56
   7   0   2  552.52   24.85
   7   0   2  586.60   26.30
   7   0   3   -0.21    0.68
   7   0   3    1.04    0.98
   7   0   3    0.08    0.30
   7   0   3    0.58    0.36
   7   0   3    0.91    0.62
   7   0   4  163.64    9.31
   7   0   4  160.85    8.18
   7   0   4  145.06    7.06
   7   0   4  142.21    7.35
   7   0   4  160.80   10.83
   7   0   5    1.14    0.79
   7   0   5    0.18    0.77
   7   0   5   -0.23    0.90
   7   0   5    0.66    0.45
   7   0   5    0.39    0.90
   7   0   5    1.21    0.43
   7   0   6  329.99   15.94
   7   0   6  323.23   14.55
   7   0   6  305.30   14.02
   7   0   6  330.77   15.27
   7   0   6  333.96   16.77
   7   0   7    0.20    0.86
   7   0   7    1.41    0.49
   7   0   7    0.32    0.58
   7   0   7    0.92    0.83
   7   0   8    7.77    1.70
   7   0   8    7.51    1.22
   7   0   8    7.45    1.02
   7   0   8    7.01    1.39
   7   0   9    0.23    0.60
   7   0   9    0.21    0.96
   7   0   9    0.41    0.41
   7   0   9    1.86    0.91
   7   0  10  110.09    6.68
   7   0  10  124.80    7.62
   7   0  11    0.13    0.62
   7   0  11    0.80    0.93
   7   0  12  175.45    9.84
   7   0  13   -0.17    0.77
   7   0  13    0.73    1.23
   7   0  14   48.60    4.38
   7   0  14   47.00    3.75
   7   0  15    0.37    1.07
   7   0  16    5.37    1.33
   7   0  17    0.11    0.61
  -7  -1  24   52.64    2.96
  -7  -1  24   48.53    3.00
  -7   1  23  130.16    6.73
  -7  -1  22    1.34    0.76
  -7   1  22    1.89    0.82
  -7   1  22    1.09    0.44
  -7  -1  21   36.53    3.21
  -7   1  21   37.82    3.25
  -7  -1  20    0.50    0.72
  -7   1  20    0.50    0.82
  -7   1  19   33.24    3.24
  -7  -1  19   30.71    3.15
  -7   1  18  118.57    7.27
  -7  -1  18  110.73    7.14
  -7   1  17   39.79    6.06
   7  -1 -17   40.74    7.65
  -7   1  17   47.28    6.98
  -7  -1  17   37.03    6.16
  -7   1  17   51.99    4.24
  -7  -1  17   54.29    4.33
  -7  -1  16   18.72    4.29
  -7   1  16   16.36    3.99
   7  -1 -16   26.24    6.08
  -7  -1  16   22.79    2.66
  -7   1  16   18.59    2.46
   7  -1 -15  192.82   17.78
  -7   1  15  202.94   15.50
  -7  -1  15  191.75   15.39
  -7   1  15  205.31   10.89
  -7  -1  15  205.30   10.89
   7  -1 -14  460.88   30.16
  -7   1  14  405.44   25.65
  -7   1  14  461.75   20.90
  -7  -1  14  448.10   20.81
  -7   1  13    2.28    1.47
   7  -1 -13    0.86    1.99
  -7  -1  13    0.97    0.75
  -7   1  13    1.30    0.80
  -7   1  12  130.87    7.41
  -7  -1  12  128.24    7.35
  -7   1  12  125.14   10.38
   7  -1 -12  136.26   13.61
  -7   1  11   42.72    3.37
  -7  -1  11   41.59    3.34
  -7   1  11   43.00    5.44
   7  -1 -11   39.68    7.10
   7  -1 -10   72.79    8.83
  -7   1  10   67.53    4.44
  -7   1  10   69.39    6.94
  -7   1   9   22.88    3.75
   7  -1  -9   18.34    4.29
   7  -1  -8   11.28    3.50
   7  -1  -8   11.78    1.52
   7  -1  -7  145.00   12.71
   7  -1  -7  152.38    7.75
   7  -1  -6  106.06    5.82
   7   1  -6  101.70    5.82
   7  -1  -5  149.42    7.62
   7  -1  -5  162.17   12.94
   7   1  -5  147.28    7.66
   7   1  -5  148.52    7.13
   7   1  -4    0.89    0.54
   7  -1  -4    0.21    0.45
   7  -1  -4    2.27    2.07
   7  -1  -4    0.60    0.49
   7   1  -4    1.39    0.48
   7   1  -3  590.42   26.03
   7  -1  -3  625.26   26.10
   7   1  -3  595.32   25.36
   7  -1  -3  657.33   33.04
   7  -1  -3  598.49   25.87
   7  -1  -2   65.69    4.06
   7  -1  -2   64.57    4.86
   7   1  -2   67.79    4.09
   7  -1  -2   50.97    3.47
   7  -1  -2   65.29    7.62
   7  -1  -2   65.98    3.91
   7   1  -2   63.25    3.47
   7  -1  -1  484.75   21.66
   7  -1  -1  485.24   22.75
   7  -1  -1  487.96   21.41
   7   1  -1  495.80   20.94
   7  -1   0  263.00   13.45
   7  -1   0  279.42   12.53
   7  -1   0  297.94   18.55
   7  -1   0  259.86   12.10
   7   1   0  242.00   12.60
   7  -1   1  173.09    9.18
   7   1   1  153.95    7.93
   7   1   1  140.41    8.11
   7  -1   1  169.55   13.25
   7   1   1  149.82    7.20
   7   1   2   34.51    4.25
   7   1   2   32.07    2.30
   7   1   2   28.84    2.09
   7  -1   2   32.85    3.36
   7  -1   2   32.81    2.76
   7   1   2   31.65    2.68
   7   1   2   27.93    2.78
   7   1   3  257.05   12.21
   7  -1   3  266.56   12.36
   7  -1   3  275.65   13.55
   7   1   3  231.30   11.24
   7   1   3  248.48   12.61
   7   1   3  257.77   11.57
   7   1   3  273.45   15.47
   7  -1   3  255.53   12.62
   7   1   4   44.32    3.01
   7   1   4   45.63    5.29
   7   1   4   47.67    2.88
   7  -1   4   42.33    4.11
   7  -1   4   45.29    3.53
   7   1   4   44.23    3.44
   7  -1   4   46.12    3.78
   7   1   5  381.57   20.41
   7   1   5  356.48   15.95
   7   1   5  338.10   15.58
   7  -1   5  387.68   16.90
   7  -1   5  388.01   18.25
   7   1   5  339.29   16.48
   7  -1   5  366.18   17.21
   7  -1   6   40.27    3.31
   7  -1   6   35.73    3.94
   7   1   6   35.17    3.05
   7   1   6   32.93    2.41
   7   1   6   36.61    3.53
   7   1   6   33.19    2.65
   7  -1   6   34.97    3.36
   7   1   7  290.01   13.82
   7  -1   7  301.47   14.11
   7   1   7  274.19   12.84
   7   1   7  278.82   14.56
   7   1   7  281.09   13.26
   7  -1   7  311.92   14.73
   7   1   8   30.45    2.99
   7  -1   8   40.85    3.46
   7   1   8   40.44    2.74
   7   1   8   40.27    3.82
   7   1   8   39.91    3.02
   7  -1   8   43.12    3.84
   7  -1   9    2.42    1.17
   7   1   9    2.78    1.21
   7   1   9    2.25    0.79
   7  -1   9    2.26    0.99
   7   1   9    1.73    0.85
   7   1   9    3.34    0.73
   7  -1  10  188.73   10.10
   7   1  10  160.63    8.28
   7   1  10  185.11   10.22
   7   1  10  168.75    9.00
   7  -1  10  185.37    9.43
   7  -1  11  250.87   12.97
   7   1  11  269.73   13.31
   7  -1  11  234.73   12.14
   7  -1  12  228.07   11.41
   7   1  12  226.26   11.53
   7  -1  12  191.56   10.27
   7  -1  13   32.51    3.74
   7   1  13   28.81    3.05
   7  -1  13   32.53    3.07
   7  -1  14   76.85    5.78
   7   1  14   74.63    5.10
   7  -1  15   -0.18    1.04
   7  -1  16    6.78    1.36
   7  -1  17   28.26    2.43
  -7   2  23    5.04    1.00
  -7   2  22   29.98    2.66
  -7  -2  22   27.31    2.04
  -7   2  22   30.84    2.18
  -7  -2  21   56.87    4.01
  -7   2  21   49.02    3.89
  -7  -2  20   80.13    5.34
  -7   2  20   76.66    5.29
  -7   2  19  166.36    9.37
  -7  -2  19  170.58    9.41
  -7   2  18  266.94   13.43
  -7  -2  18  256.56   13.37
  -7   2  17   47.20    6.66
  -7   2  17   43.44    6.08
   7  -2 -17   38.23    7.49
   7   2 -17   48.75    8.27
  -7  -2  17   46.46    6.69
  -7  -2  17   51.88    6.55
  -7   2  17   57.82    7.04
  -7  -2  17   52.58    4.36
  -7   2  17   60.19    4.54
  -7  -2  16    6.42    2.57
  -7   2  16    7.88    2.53
   7  -2 -16    6.46    3.02
   7   2 -16    6.46    3.02
  -7  -2  16    4.17    1.25
  -7   2  16    3.21    1.21
  -7   2  15  158.72    8.89
  -7  -2  15  155.83    8.87
   7  -2 -15  177.31   16.39
   7   2 -15  146.79   15.28
  -7  -2  15  160.76   13.60
  -7   2  15  124.43   11.86
  -7  -2  14  118.37    7.20
  -7   2  14  124.89    7.32
   7  -2 -14  117.25   13.08
   7   2 -14  117.89   13.07
  -7   2  14  107.58   10.43
  -7   2  14  116.21   10.64
  -7   2  13  527.97   29.96
   7  -2 -13  556.08   34.06
   7   2 -13  571.24   34.53
  -7   2  13  534.35   29.97
  -7  -2  13  566.86   25.13
  -7   2  13  560.83   25.11
  -7   2  12  304.31   19.21
  -7  -2  12  320.13   14.76
   7  -2 -12  321.51   22.76
   7   2 -12  302.30   22.42
  -7   2  12  285.23   18.71
  -7   2  12  293.86   14.60
  -7   2  11   27.45    2.64
  -7   2  11   28.07    4.63
   7  -2 -11   34.25    5.99
   7   2 -11   24.64    5.37
  -7  -2  11   29.30    2.70
   7  -2 -10  433.28   26.20
   7   2 -10  423.81   26.55
  -7   2  10  428.41   23.87
  -7   2  10  413.55   18.97
  -7   2   9   35.88    2.93
   7  -2  -9   38.25    6.17
   7   2  -9   48.77    7.03
   7  -2  -8  149.59    7.61
   7  -2  -8  138.25   12.45
   7   2  -8  152.92   13.32
   7  -2  -7   19.36    1.93
   7  -2  -7   18.48    1.87
   7  -2  -7   20.35    4.38
   7   2  -7   14.02    3.75
   7  -2  -6   75.37    4.18
   7   2  -6   78.19    4.30
   7  -2  -6   95.67    9.44
   7   2  -6   72.13    8.60
   7  -2  -6   81.86    4.72
   7  -2  -6   82.84    4.76
   7  -2  -5   51.74    3.09
   7   2  -5   53.55    3.19
   7  -2  -5   53.45    7.07
   7   2  -5   57.02    7.43
   7   2  -5   52.37    3.63
   7  -2  -5   57.88    3.66
   7  -2  -4  203.58    9.45
   7   2  -4  207.45    9.55
   7  -2  -4  237.98   16.01
   7   2  -4  232.57   16.36
   7  -2  -4  215.28   10.07
   7   2  -4  207.58   10.18
   7  -2  -4  208.52   10.10
   7  -2  -3   17.71    1.84
   7  -2  -3   19.78    3.97
   7   2  -3   15.88    3.84
   7  -2  -3   16.03    1.42
   7   2  -3   19.99    1.57
   7  -2  -3   16.19    1.70
   7   2  -3   15.34    1.79
   7  -2  -3   17.64    1.69
   7  -2  -2  175.44    9.55
   7   2  -2  152.79    9.08
   7  -2  -2  172.53    8.43
   7  -2  -2  197.32   13.96
   7   2  -2  185.40   14.00
   7  -2  -2  157.82    7.60
   7   2  -2  173.57    7.77
   7  -2  -2  173.39    8.26
   7  -2  -2  149.50    7.93
   7  -2  -1  713.10   29.08
   7   2  -1  669.70   29.97
   7  -2  -1  741.23   30.41
   7  -2  -1  738.11   35.95
   7   2  -1  708.90   36.23
   7  -2  -1  662.28   28.08
   7   2  -1  693.62   28.21
   7  -2  -1  698.83   28.78
   7  -2  -1  581.34   28.37
   7   2   0   15.31    1.89
   7  -2   0   19.04    3.97
   7   2   0   13.95    3.75
   7  -2   0   14.49    1.59
   7  -2   0   15.56    1.79
   7  -2   0   12.28    2.00
   7   2   0   12.78    1.59
   7   2   0   12.88    2.01
   7  -2   1  726.07   30.55
   7   2   1  670.67   31.34
   7  -2   1  761.42   31.81
   7   2   1  743.53   30.46
   7  -2   1  780.30   37.73
   7   2   1  803.76   38.70
   7   2   1  673.63   30.70
   7  -2   1  698.83   30.06
   7   2   1  675.01   29.61
   7  -2   1  772.96   33.69
   7   2   1  718.62   29.77
   7   2   1  809.17   34.34
   7  -2   1  665.94   29.57
   7  -2   2   27.09    3.09
   7   2   2   27.71    3.06
   7   2   2   29.97    2.59
   7   2   2   28.18    2.78
   7  -2   2   35.68    4.17
   7   2   2   31.45    2.26
   7  -2   2   31.85    2.20
   7   2   2   39.72    4.61
   7   2   2   28.68    2.11
   7  -2   2   31.27    2.41
   7   2   2   24.79    2.00
   7  -2   3   77.35    4.78
   7   2   3   69.91    4.48
   7   2   3   71.00    5.34
   7  -2   3   81.61    5.69
   7   2   3   60.93    4.70
   7  -2   3   69.79    3.97
   7   2   3   72.60    4.12
   7  -2   3   77.52    6.63
   7   2   3   69.79    6.58
   7  -2   3   64.76    4.47
   7   2   3   65.67    3.87
   7  -2   4   25.95    2.49
   7   2   4   30.77    3.36
   7  -2   4   34.37    2.94
   7  -2   4   26.99    3.23
   7   2   4   30.53    2.67
   7   2   4   27.02    2.92
   7  -2   4   29.24    2.91
   7   2   4   29.23    2.18
   7  -2   4   32.51    4.16
   7   2   4   27.12    2.25
   7   2   4   28.52    4.19
   7  -2   4   29.86    2.25
   7   2   5    2.66    0.88
   7  -2   5    2.43    0.96
   7  -2   5    0.69    0.77
   7   2   5    1.50    0.95
   7  -2   5    2.27    0.71
   7   2   5    0.80    0.56
   7   2   5    2.87    1.50
   7  -2   5   -0.37    0.86
   7  -2   5    1.39    1.01
   7   2   5    3.20    1.30
   7   2   5    2.97    0.68
   7  -2   6   97.90    6.08
   7  -2   6   82.91    4.81
   7   2   6   86.67    4.99
   7   2   6   79.40    4.65
   7  -2   6   92.93    6.72
   7   2   6   92.35    6.60
   7   2   6   80.79    5.23
   7  -2   6   84.75    5.55
   7   2   7  308.89   14.59
   7  -2   7  319.55   15.06
   7  -2   7  317.86   16.40
   7   2   7  309.23   16.26
   7   2   7  323.24   14.30
   7  -2   7  324.64   15.43
   7  -2   7  296.66   13.99
   7   2   7  290.87   13.79
   7   2   8  183.64    9.12
   7  -2   8  200.32    9.73
   7   2   8  170.69    9.99
   7  -2   8  177.26    9.83
   7   2   8  163.20    8.35
   7  -2   8  164.31    8.51
   7   2   8  166.28    8.70
   7   2   9    7.14    1.26
   7  -2   9    5.34    1.09
   7  -2   9    5.02    1.36
   7   2   9    4.80    1.11
   7  -2   9    6.06    1.52
   7   2   9    5.87    1.66
   7   2   9    5.65    0.99
   7  -2  10  138.22    8.13
   7   2  10  133.95    8.32
   7   2  10  125.42    6.72
   7  -2  10  137.16    7.71
   7   2  11  208.81   10.97
   7  -2  11  174.34    9.80
   7  -2  11  196.86   10.51
   7  -2  12  250.11   12.54
   7  -2  12  266.82   14.33
   7   2  12  260.11   14.38
   7   2  12  277.94   13.67
   7  -2  13   63.55    4.66
   7   2  13   66.71    4.83
   7   2  13   61.38    3.99
   7  -2  14    0.61    0.99
   7   2  14    0.64    1.02
   7   2  14    1.25    0.90
   7  -2  15    1.36    0.97
   7   2  15    1.27    0.94
   7   2  15    1.82    0.82
   7  -2  16   36.90    3.10
   7   2  16   36.85    3.20
   7   2  17    4.43    1.04
   7  -2  17    6.45    1.12
  -7   3  23  197.03    9.41
  -7  -3  22   39.84    2.55
  -7   3  22   41.22    2.67
  -7   3  21  478.03   21.59
  -7  -3  20    6.84    1.39
  -7   3  20    6.04    1.37
  -7  -3  19  371.08   17.37
  -7   3  19  353.92   17.29
  -7  -3  18  246.21   12.58
  -7   3  18  237.56   12.51
  -7  -3  17    0.38    0.82
  -7   3  17    0.38    0.76
  -7  -3  16    0.50    1.16
  -7   3  16    0.58    1.33
  -7  -3  16    3.79    1.78
  -7   3  16    0.58    0.67
   7  -3 -16    1.79    2.07
   7   3 -16    2.70    2.54
  -7  -3  16    1.14    0.93
  -7   3  16    1.14    0.79
  -7   3  15   68.40    8.17
   7  -3 -15   87.28   10.98
   7   3 -15   66.12    9.68
  -7   3  15   63.68    7.72
  -7   3  15   70.04    5.21
  -7  -3  15   79.43    5.45
  -7   3  14   88.65    9.56
  -7   3  14   92.04    6.04
  -7  -3  14   85.91    5.91
   7  -3 -14   94.69   11.39
   7   3 -14   84.30   10.92
  -7   3  14   97.70    9.31
  -7   3  13   25.05    2.72
  -7  -3  13   28.40    2.83
  -7   3  13   26.92    4.85
  -7   3  13   19.54    3.93
   7  -3 -13   33.43    6.48
   7   3 -13   28.02    5.99
  -7   3  12   42.12    3.58
  -7   3  12   45.91    5.81
  -7   3  12   46.31    6.44
  -7  -3  12   42.56    3.54
   7  -3 -12   42.28    6.91
   7   3 -12   47.73    7.54
  -7   3  11  168.21   13.66
  -7   3  11  173.18   12.63
   7  -3 -11  184.21   15.28
   7   3 -11  198.62   16.25
  -7   3  11  188.48    9.67
   7  -3 -10  134.68   12.22
   7   3 -10  124.99   12.28
  -7   3  10  125.04   10.92
  -7   3  10  119.11    6.90
  -7   3   9   49.41    3.62
   7   3  -9   41.22    6.74
   7  -3  -9   53.97    7.19
   7  -3  -8    1.23    1.59
   7   3  -8    4.71    2.58
   7  -3  -8    2.18    0.83
   7  -3  -7  675.81   34.76
   7   3  -7  643.30   35.14
   7  -3  -7  630.81   27.29
   7  -3  -7  631.47   27.38
   7  -3  -6   93.52    5.00
   7   3  -6  102.11    5.20
   7   3  -6  111.79   10.75
   7  -3  -6  119.85   10.65
   7  -3  -6   96.29    5.52
   7  -3  -6  104.10    5.64
   7  -3  -5    6.57    1.13
   7  -3  -5    6.27    2.57
   7   3  -5    8.78    3.00
   7  -3  -5    6.32    0.88
   7   3  -5    7.95    0.99
   7  -3  -4  133.43    6.47
   7   3  -4  140.87    6.63
   7  -3  -4  160.22   12.41
   7   3  -4  148.20   12.48
   7  -3  -4  130.04    7.06
   7   3  -4  136.70    7.24
   7  -3  -4  132.52    7.03
   7  -3  -3   47.72    3.33
   7  -3  -3   56.20    6.84
   7   3  -3   55.00    7.19
   7  -3  -3   45.43    2.73
   7   3  -3   46.91    2.86
   7  -3  -3   42.05    3.12
   7  -3  -3   48.05    3.27
   7   3  -2  157.86    8.79
   7  -3  -2  153.49    7.91
   7  -3  -2  165.66   12.78
   7   3  -2  176.40   13.77
   7  -3  -2  152.86    7.16
   7   3  -2  155.99    7.30
   7  -3  -2  147.63    7.69
   7  -3  -2  151.46    7.76
   7  -3  -1  137.75    7.06
   7   3  -1  141.28    7.24
   7  -3  -1  148.79    7.35
   7  -3  -1  147.78    8.30
   7   3  -1  127.68    7.84
   7   3  -1  129.94    6.78
   7   3  -1  122.06    7.20
   7  -3  -1  133.09    6.96
   7  -3  -1  140.17   11.60
   7   3  -1  139.19   12.24
   7  -3   0  138.27    7.45
   7   3   0  140.07    7.20
   7  -3   0  144.72    7.09
   7   3   0  129.52    7.87
   7  -3   0  133.81    7.22
   7  -3   0  149.91    8.31
   7   3   0  131.12    6.72
   7   3   0  120.82    7.24
   7  -3   0  121.16    6.76
   7  -3   0  164.35   12.54
   7   3   0  163.72   13.17
   7   3   1   10.68    1.82
   7   3   1    9.81    1.44
   7  -3   1   12.15    1.62
   7  -3   1   11.57    1.92
   7   3   1    6.99    1.37
   7  -3   1    8.76    1.06
   7  -3   1   10.89    2.22
   7   3   1    9.97    2.31
   7   3   1   10.18    1.22
   7   3   1   10.53    1.23
   7   3   1    9.93    1.17
   7  -3   1   10.57    1.40
   7  -3   1   12.22    1.66
   7  -3   2   34.29    2.86
   7  -3   2   33.06    3.35
   7   3   2   33.02    3.28
   7   3   2   29.49    2.57
   7   3   2   30.07    2.88
   7   3   2   35.88    4.47
   7  -3   2   27.84    2.12
   7   3   2   31.25    2.31
   7  -3   2   32.38    3.96
   7   3   2   25.69    2.13
   7  -3   2   31.20    2.48
   7  -3   2   31.61    2.84
   7   3   2   29.05    2.21
   7  -3   3   12.88    1.78
   7  -3   3   13.43    1.54
   7  -3   3   17.52    2.42
   7   3   3   14.14    1.70
   7   3   3   13.26    1.93
   7   3   3   15.64    1.53
   7   3   3   16.92    3.09
   7  -3   3   13.12    2.57
   7  -3   3   11.13    1.27
   7   3   3   14.24    1.43
   7   3   3   12.59    1.34
   7   3   3   10.41    1.91
   7  -3   4  441.34   18.88
   7  -3   4  438.01   19.95
   7   3   4  394.56   18.28
   7   3   4  393.20   19.53
   7   3   4  399.58   19.07
   7  -3   4  385.71   17.62
   7   3   4  415.11   17.91
   7  -3   4  418.55   21.54
   7   3   4  476.36   22.95
   7   3   4  392.46   17.68
   7  -3   4  391.09   18.51
   7   3   5 1247.30   54.12
   7  -3   5 1359.80   54.52
   7  -3   5 1364.68   53.29
   7   3   5 1243.78   52.53
   7   3   5 1229.21   53.52
   7   3   5 1290.87   52.22
   7  -3   5 1237.65   56.24
   7   3   5 1369.42   57.79
   7  -3   5 1239.17   51.92
   7   3   5 1212.53   51.92
   7  -3   5 1162.23   52.59
   7   3   6   99.52    5.45
   7  -3   6   87.99    5.11
   7   3   6  100.60    6.57
   7   3   6   89.94    5.14
   7  -3   6  107.55    7.18
   7  -3   6   91.71    5.98
   7   3   6   91.92    6.77
   7   3   6   96.02    5.65
   7  -3   7   37.95    3.40
   7  -3   7   38.11    4.06
   7   3   7   36.16    3.95
   7   3   7   37.47    2.75
   7   3   7   32.51    2.90
   7   3   7   41.22    3.01
   7  -3   7   38.35    2.77
   7  -3   8  379.51   18.23
   7  -3   8  358.81   16.68
   7   3   8  349.75   17.91
   7  -3   8  346.07   15.55
   7   3   8  365.37   15.91
   7   3   8  335.71   15.47
   7   3   8  311.38   15.73
   7  -3   9   15.69    2.15
   7  -3   9   13.67    1.61
   7   3   9   14.83    1.78
   7  -3   9   18.84    2.93
   7   3   9   15.64    2.67
   7   3   9   14.07    2.37
   7   3   9   12.98    1.55
   7   3  10   88.92    6.21
   7  -3  10   91.23    6.75
   7   3  10   87.95    6.74
   7  -3  10   77.59    5.43
   7   3  10   78.44    4.74
   7   3  11  130.38    8.07
   7  -3  11  136.04    8.72
   7   3  11  131.67    8.72
   7  -3  11  130.24    7.41
   7   3  11  119.08    6.54
   7   3  12    1.39    1.17
   7  -3  12    0.28    0.74
   7  -3  12    1.20    1.41
   7   3  12    1.01    1.24
   7   3  13   13.64    2.11
   7  -3  13    6.98    1.23
   7  -3  13    9.78    2.07
   7   3  13    9.10    2.08
   7   3  14   59.03    4.38
   7   3  14   61.01    4.92
   7  -3  14   58.19    4.69
   7  -3  15   26.20    2.82
   7   3  15   27.27    2.91
   7   3  15   29.73    2.65
   7  -3  16    0.61    0.55
   7   3  16    0.55    0.74
   7   3  17  114.77    6.21
   7  -3  17  124.50    6.18
  -7   4  23   20.06    1.72
  -7  -4  23   16.69    1.45
  -7   4  23   10.67    1.32
  -7  -4  23   16.29    1.34
  -7   4  23   12.69    1.35
  -7   4  22    5.51    1.09
  -7   4  21  112.39    6.27
  -7  -4  21  100.70    5.20
  -7   4  21  101.12    5.38
  -7   4  20    6.04    1.39
  -7   4  19    9.55    1.73
  -7   4  18   90.00    6.20
  -7  -4  18  101.95    6.38
  -7  -4  17   27.24    2.97
  -7   4  17   27.20    2.97
   7  -4 -16  151.62   14.68
   7   4 -16  137.39   14.10
  -7   4  16  121.09   11.69
  -7   4  16  141.97   12.80
  -7  -4  16  136.67   11.19
  -7   4  16  124.43   11.53
  -7   4  16  136.73   11.40
  -7   4  16  151.57    8.54
  -7  -4  16  151.73    8.54
  -7   4  15    2.01    1.34
  -7   4  15    1.04    0.85
   7  -4 -15   -0.86    1.72
   7   4 -15    0.88    1.44
  -7  -4  15    3.33    1.13
  -7   4  15    0.19    0.81
  -7  -4  14    2.87    0.97
  -7   4  14    1.09    0.76
   7   4 -14    3.24    2.48
  -7   4  14    3.33    1.72
  -7   4  14    0.99    1.28
   7  -4 -14    1.68    2.18
  -7   4  13  205.08   10.82
   7  -4 -13  199.00   16.71
   7   4 -13  215.20   17.63
  -7   4  13  210.35   15.99
  -7   4  13  198.14   13.96
  -7  -4  13  201.31   10.73
  -7   4  12  237.61   12.37
   7  -4 -12  266.60   19.19
   7   4 -12  257.92   19.49
  -7   4  12  237.09   17.57
  -7   4  12  223.11   15.23
  -7  -4  12  261.49   12.53
  -7   4  11  340.36   21.66
   7  -4 -11  338.18   22.48
   7   4 -11  343.73   23.18
  -7   4  11  331.91   15.78
  -7   4  11  309.82   18.59
  -7   4  10    2.44    1.57
  -7   4  10    1.09    1.11
   7  -4 -10    2.67    1.89
   7   4 -10    2.20    2.07
  -7   4  10    1.63    0.81
   7  -4  -9  117.44    6.55
   7  -4  -9  127.97   11.66
   7   4  -9  129.47   12.24
  -7   4   9  119.98    8.82
  -7   4   9  117.51    6.79
   7  -4  -8  140.05    7.24
   7   4  -8  128.16   12.46
   7  -4  -8  132.93   12.04
  -7   4   8  131.86    7.34
   7  -4  -7   64.61    3.71
   7   4  -7   68.18    3.89
   7  -4  -7   74.20    8.27
   7   4  -7   67.47    8.46
   7  -4  -7   65.02    4.14
   7  -4  -7   72.27    4.37
   7  -4  -6   32.87    2.29
   7   4  -6   38.18    2.53
   7  -4  -6   39.11    5.86
   7   4  -6   38.17    6.20
   7  -4  -6   35.67    2.75
   7  -4  -6   37.16    2.84
   7  -4  -5  169.55    8.28
   7   4  -5  189.29    8.55
   7  -4  -5  205.98   14.71
   7   4  -5  203.57   15.38
   7  -4  -5  182.63    9.00
   7  -4  -5  180.80    8.99
   7  -4  -4   56.69    3.23
   7   4  -4   58.75    3.38
   7  -4  -4   61.10    7.33
   7   4  -4   61.22    7.78
   7  -4  -4   52.58    3.75
   7  -4  -4   60.82    3.88
   7  -4  -3  377.91   17.10
   7  -4  -3  403.22   23.11
   7   4  -3  388.77   23.81
   7  -4  -3  367.65   16.25
   7   4  -3  401.62   16.51
   7  -4  -3  372.30   17.08
   7  -4  -3  371.28   17.00
   7   4  -2  634.03   28.46
   7  -4  -2  666.26   28.97
   7  -4  -2  677.13   28.45
   7  -4  -2  675.56   28.54
   7   4  -2  644.33   28.21
   7  -4  -2  649.74   27.58
   7   4  -2  683.94   27.81
   7  -4  -2  643.42   28.43
   7  -4  -2  747.84   35.55
   7   4  -2  668.98   35.70
   7  -4  -1  361.32   15.85
   7   4  -1  339.93   15.84
   7  -4  -1  349.28   16.29
   7  -4  -1  379.43   16.10
   7  -4  -1  390.53   17.26
   7   4  -1  326.98   16.54
   7   4  -1  342.97   15.56
   7   4  -1  316.71   15.86
   7  -4  -1  329.85   15.72
   7  -4  -1  402.30   22.33
   7   4  -1  365.17   22.67
   7  -4   0  130.40    7.35
   7  -4   0  137.70    6.98
   7   4   0  130.78    6.99
   7  -4   0  140.79    7.22
   7  -4   0  139.87    8.04
   7   4   0  124.55    7.62
   7   4   0  134.90    6.73
   7   4   0  118.00    7.05
   7  -4   0  119.93    6.77
   7   4   0  115.14   11.54
   7  -4   0  129.58   11.30
   7  -4   1    1.03    0.78
   7   4   1    2.66    0.63
   7  -4   1    1.34    0.64
   7   4   1    1.09    0.51
   7  -4   1    0.60    0.85
   7   4   1    2.12    1.36
   7  -4   1    1.00    0.40
   7  -4   1    1.32    0.73
   7   4   1    0.72    0.86
   7   4   1    1.19    0.65
   7  -4   1    1.72    0.94
   7   4   1    0.47    0.49
   7   4   1    1.02    0.63
   7  -4   2    1.64    0.74
   7   4   2    4.46    0.82
   7  -4   2    1.67    0.65
   7  -4   2    1.24    0.88
   7  -4   2    1.56    0.52
   7   4   2    2.55    0.67
   7   4   2    2.58    1.28
   7  -4   2    2.35    1.13
   7   4   2    2.63    1.13
   7   4   2    2.65    0.79
   7  -4   2    2.65    0.96
   7   4   2    2.90    0.70
   7   4   2    0.47    0.66
   7  -4   3  205.57   10.66
   7  -4   3  208.99   10.12
   7   4   3  203.18   10.23
   7  -4   3  198.67    9.59
   7   4   3  221.13    9.97
   7  -4   3  212.20   12.88
   7   4   3  231.78   13.94
   7  -4   3  231.82   10.86
   7  -4   3  242.01   11.80
   7   4   3  202.46   11.22
   7   4   3  211.59    9.86
   7   4   3  188.70    9.69
   7   4   3  199.58   10.84
   7  -4   4   72.70    5.04
   7  -4   4   70.94    4.50
   7   4   4   73.74    4.72
   7   4   4   82.97    4.59
   7  -4   4   78.51    6.85
   7   4   4   83.91    7.55
   7  -4   4   81.31    4.38
   7  -4   4   80.53    5.82
   7   4   4   69.18    5.50
   7   4   4   76.90    4.45
   7   4   4   73.67    5.34
   7  -4   5   88.53    5.61
   7   4   5   85.46    5.23
   7   4   5   85.39    6.26
   7  -4   5   88.11    5.73
   7  -4   5   91.49    6.43
   7   4   5   88.86    5.09
   7  -4   5   79.25    7.22
   7   4   5   92.38    8.25
   7  -4   5   85.38    4.80
   7   4   5   84.10    4.91
   7   4   5   91.75    6.12
   7  -4   6    5.93    1.36
   7   4   6    2.37    0.83
   7  -4   6    3.17    0.76
   7   4   6    2.92    0.85
   7  -4   6    3.50    1.48
   7   4   6    2.55    1.32
   7   4   6    5.30    1.46
   7   4   6    4.53    0.92
   7  -4   6    3.95    1.08
   7   4   7  152.46    8.63
   7  -4   7  185.72   10.61
   7   4   7  175.08   10.37
   7  -4   7  177.68    9.57
   7   4   7  169.82    8.55
   7   4   7  176.97   10.07
   7   4   7  190.84    8.90
   7  -4   7  168.24    8.41
   7  -4   8   18.17    2.35
   7  -4   8   16.44    1.73
   7   4   8   18.10    1.93
   7  -4   8   17.79    2.78
   7   4   8   13.94    2.51
   7   4   8   16.50    1.78
   7   4   8   15.72    2.47
   7  -4   9    1.77    1.27
   7   4   9   -0.26    1.20
   7   4   9    0.55    0.54
   7   4   9    0.73    0.68
   7  -4   9    0.35    0.97
   7  -4  10  254.56   12.58
   7  -4  10  258.24   13.71
   7   4  10  258.68   13.87
   7   4  10  231.10   11.51
   7  -4  11   27.10    2.81
   7   4  11   25.96    3.44
   7  -4  11   31.68    3.58
   7   4  11   31.90    3.38
   7   4  11   28.48    2.40
   7   4  12  167.44   10.14
   7  -4  12  178.00   10.08
   7  -4  12  157.62    8.74
   7   4  12  173.02    9.66
   7   4  13  287.00   14.66
   7  -4  13  252.48   12.99
   7   4  13  289.51   14.12
   7   4  14  121.14    7.46
   7  -4  14  121.58    7.24
   7   4  14  112.25    6.87
   7  -4  15   24.80    2.46
   7   4  15   18.70    2.33
   7   4  15   20.50    2.20
   7  -4  16   24.47    2.20
   7   4  16   19.87    2.16
   7   4  16   24.23    2.11
  -7   5  23   64.02    3.73
  -7   5  22    0.66    0.57
  -7  -5  21   37.66    2.34
  -7   5  21   33.58    2.40
  -7   5  20   72.18    4.93
  -7   5  19    2.87    0.73
  -7   5  19    4.59    1.23
  -7   5  18    6.73    1.50
  -7   5  17  319.80   15.81
  -7   5  16    1.15    0.92
   7  -5 -16    2.26    1.51
   7   5 -16    4.54    2.14
  -7  -5  16    3.13    1.37
  -7   5  16    1.07    0.88
  -7  -5  16    0.59    0.68
  -7   5  16    2.10    1.40
  -7   5  15   18.61    4.02
  -7   5  15   14.29    3.73
   7  -5 -15   20.55    4.60
   7   5 -15    9.34    3.16
  -7   5  15   13.37    2.15
  -7   5  15   17.91    3.86
  -7   5  15   10.88    2.68
  -7  -5  15   16.03    2.21
  -7  -5  14   12.30    1.92
  -7   5  14   10.47    1.80
   7  -5 -14    6.05    2.79
   7   5 -14    7.86    3.04
  -7   5  14   10.96    2.61
  -7   5  14    9.30    3.01
  -7   5  13  111.45    7.14
   7  -5 -13  113.82   11.81
   7   5 -13  108.19   11.77
  -7   5  13  101.13   11.20
  -7  -5  13  130.22    7.34
  -7   5  13  120.90    9.69
  -7   5  12   78.60    5.41
   7  -5 -12   77.07    9.38
   7   5 -12   87.94   10.21
  -7   5  12   66.85    8.67
  -7  -5  12   89.18    5.56
  -7   5  12   61.80    6.66
  -7   5  11  205.66   16.69
   7  -5 -11  247.36   17.68
   7   5 -11  228.31   17.73
  -7   5  11  209.18   13.49
  -7   5  11  220.99   11.40
   7  -5 -10   92.88    5.45
   7  -5 -10   94.50    9.97
   7   5 -10   93.72   10.49
  -7   5  10   76.57    6.90
  -7   5  10   89.48    5.74
   7  -5  -9   95.88    5.40
   7  -5  -9   97.75    9.99
   7   5  -9   94.68   10.24
  -7   5   9   67.95    6.35
  -7   5   9   87.07    5.55
   7  -5  -8  474.22   21.13
   7  -5  -8  469.48   27.55
   7   5  -8  495.36   28.96
  -7   5   8  475.53   21.44
   7  -5  -7   27.68    2.04
   7   5  -7   31.22    2.27
  -7   5   7   26.81    2.59
   7  -5  -7   29.12    5.18
   7   5  -7   29.96    5.68
   7  -5  -7   31.62    2.61
   7  -5  -6  297.47   13.58
   7   5  -6  325.31   13.89
   7  -5  -6  341.90   20.74
   7   5  -6  345.49   21.78
   7  -5  -6  309.41   14.27
   7  -5  -6  309.59   14.42
   7  -5  -5  839.64   35.64
   7  -5  -5  951.99   43.37
   7   5  -5  853.93   43.55
   7  -5  -5  807.04   34.81
   7   5  -5  891.58   35.15
   7  -5  -5  819.40   35.90
   7  -5  -5  825.08   35.68
   7  -5  -4  145.89    7.69
   7  -5  -4  141.74    6.93
   7   5  -4  162.92    7.26
   7  -5  -4  148.05    7.91
   7  -5  -4  151.43   12.28
   7   5  -4  132.09   12.34
   7  -5  -3    9.46    1.40
   7  -5  -3    8.07    1.28
   7   5  -3    7.49    1.22
   7  -5  -3    7.63    0.91
   7   5  -3    8.19    1.03
   7  -5  -3   11.02    1.53
   7  -5  -3    8.60    2.72
   7   5  -3   11.34    3.35
   7  -5  -2 1068.41   45.73
   7  -5  -2 1118.30   45.19
   7  -5  -2 1038.04   45.11
   7   5  -2 1043.65   44.93
   7  -5  -2 1057.49   45.24
   7  -5  -2 1240.92   52.68
   7   5  -2 1147.18   53.39
   7  -5  -1  242.33   11.92
   7  -5  -1  243.24   11.38
   7  -5  -1  246.09   11.52
   7   5  -1  246.51   11.24
   7   5  -1  199.65   11.14
   7  -5  -1  237.58   11.43
   7  -5  -1  248.04   16.59
   7   5  -1  256.61   17.78
   7   5   0   47.04    3.20
   7  -5   0   46.60    3.49
   7  -5   0   56.10    4.28
   7   5   0   41.01    3.67
   7  -5   0   45.17    3.67
   7  -5   0   47.47    3.35
   7   5   0   46.81    3.36
   7   5   0   46.48    5.17
   7  -5   0   38.83    4.39
   7  -5   0   43.15    2.74
   7   5   0   49.09    3.02
   7  -5   0   38.67    3.16
   7   5   0   40.05    3.30
   7  -5   0   55.05    6.76
   7   5   1   19.71    2.05
   7   5   1   21.92    1.96
   7  -5   1   20.00    2.35
   7  -5   1   23.57    2.19
   7   5   1   20.55    2.28
   7   5   1   19.13    2.43
   7  -5   1   21.88    2.67
   7  -5   1   20.23    2.25
   7   5   1   22.94    2.07
   7  -5   1   26.37    3.46
   7   5   1   25.33    3.74
   7   5   1   22.41    1.89
   7  -5   1   19.56    1.65
   7  -5   2    4.19    1.16
   7  -5   2    3.43    0.90
   7   5   2    4.68    0.89
   7   5   2    2.69    0.98
   7  -5   2    4.40    1.09
   7  -5   2    3.83    1.26
   7   5   2    3.31    1.21
   7   5   2    3.85    0.96
   7   5   2    3.74    0.83
   7  -5   2    6.11    1.74
   7   5   2    5.63    1.85
   7  -5   2    4.48    0.77
   7   5   2    3.69    0.77
   7   5   3  108.72    6.31
   7  -5   3  119.23    6.95
   7  -5   3  121.41    6.41
   7   5   3  107.28    6.84
   7  -5   3  120.66    6.88
   7  -5   3  125.37    7.48
   7   5   3  111.40    7.17
   7   5   3  109.59    6.05
   7   5   3  106.81    6.02
   7   5   3  118.62    6.08
   7  -5   3  113.51    5.78
   7  -5   3  111.82    8.43
   7   5   3  126.53    9.51
   7   5   4   19.41    2.03
   7  -5   4   19.31    2.34
   7  -5   4   19.00    1.98
   7   5   4   16.96    2.27
   7  -5   4   20.44    2.39
   7  -5   4   20.93    2.71
   7   5   4   22.18    2.72
   7   5   4   20.24    1.91
   7   5   4   16.94    3.33
   7  -5   4   16.69    2.96
   7  -5   4   20.23    1.75
   7   5   4   17.92    1.81
   7   5   5   89.54    5.74
   7  -5   5  104.66    6.50
   7  -5   5  119.90    7.40
   7   5   5  101.27    6.96
   7   5   5  107.93    6.90
   7   5   5  108.95    5.86
   7  -5   5  105.68    5.55
   7   5   5  115.36    5.94
   7  -5   6   25.69    3.15
   7   5   6   21.20    2.82
   7  -5   6   25.93    2.74
   7   5   6   24.21    2.88
   7   5   6   23.29    2.15
   7  -5   6   25.27    2.04
   7   5   6   23.54    2.17
   7  -5   6   20.49    2.40
   7   5   6   19.18    2.06
   7  -5   7  296.30   14.96
   7  -5   7  362.77   16.33
   7   5   7  282.71   15.55
   7   5   7  313.09   15.60
   7  -5   7  289.50   13.70
   7   5   7  338.14   14.31
   7   5   7  303.56   14.04
   7  -5   7  277.64   14.52
   7  -5   8    0.90    0.81
   7   5   8    0.87    0.91
   7  -5   8    1.89    1.25
   7   5   8    0.48    0.88
   7  -5   8    0.76    0.55
   7   5   8    0.95    0.66
   7   5   8    1.84    0.70
   7  -5   8    1.21    0.72
   7  -5   9   16.59    2.52
   7   5   9   14.51    2.50
   7   5   9   12.93    2.30
   7   5   9   11.78    1.55
   7  -5   9   12.75    2.02
   7   5  10   28.08    2.42
   7  -5  10   33.64    3.59
   7  -5  10   25.52    2.85
   7   5  10   24.98    3.35
   7  -5  11    1.58    1.02
   7   5  11    0.76    0.54
   7  -5  11    0.66    1.14
   7   5  11    0.95    1.16
   7  -5  12  182.70    9.61
   7   5  12  187.64   10.73
   7  -5  12  188.96   10.51
   7   5  13    3.13    1.24
   7  -5  13    2.80    0.92
   7  -5  13    2.87    1.23
   7   5  13    3.22    1.28
   7  -5  14   49.85    3.31
   7   5  14   43.34    3.34
   7   5  14   44.20    3.16
   7   5  15  161.72    8.49
   7  -5  15  170.64    8.53
   7   5  15  163.32    8.71
   7   5  16  113.73    5.58
   7  -5  16  108.48    5.40
  -7   6  22   34.81    2.64
   7  -6 -21    8.24    1.16
  -7   6  21   12.75    1.62
   7   6 -20  205.73    9.09
  -7  -6  20  206.44    9.31
  -7   6  20  192.55    9.42
  -7   6  19    2.30    1.02
  -7   6  19    1.30    0.54
  -7   6  18    7.82    1.66
   7   6 -17    2.48    0.65
  -7   6  17    2.62    1.15
  -7   6  16   14.42    2.14
  -7   6  15   55.06    7.27
  -7   6  15   69.32    8.85
   7  -6 -15   77.63    8.99
   7   6 -15   62.71    8.34
  -7   6  15   70.83    5.18
  -7  -6  15   62.71    6.77
  -7   6  15   67.44    7.55
  -7   6  14  126.11   13.17
   7  -6 -14  171.58   14.48
   7   6 -14  159.63   14.24
  -7   6  14  151.54    8.86
  -7   6  14  166.94   13.08
   7  -6 -13   96.68   10.60
   7   6 -13   93.05   10.70
  -7   6  13  100.40   11.07
  -7   6  13   98.74    6.46
   7  -6 -12    3.44    1.95
   7   6 -12    2.98    2.12
  -7   6  12    3.79    2.15
  -7   6  12    6.26    1.44
   7  -6 -11    1.19    0.82
   7  -6 -11    1.33    1.72
   7   6 -11   -0.73    1.70
  -7   6  11    0.75    1.23
  -7   6  11    0.89    0.77
  -7   6  10   30.04    2.98
   7  -6 -10   28.90    5.32
   7   6 -10   32.42    5.88
   7  -6 -10   27.05    2.56
  -7   6   9  870.86   38.31
   7  -6  -9  870.82   37.78
   7  -6  -9  968.83   45.77
   7   6  -9  962.02   46.99
  -7   6   8  367.05   16.42
   7  -6  -8  323.85   14.89
   7   6  -8  361.20   15.24
   7  -6  -8  332.47   15.78
   7  -6  -8  351.98   22.00
   7   6  -8  347.82   22.93
  -7   6   7    2.39    0.90
   7  -6  -7    1.56    0.51
   7   6  -7    1.07    0.58
   7  -6  -7    1.38    0.74
   7  -6  -7    2.93    1.91
   7   6  -7    3.39    2.07
   7  -6  -6   12.47    1.62
   7  -6  -6   10.63    1.64
  -7   6   6   10.83    1.63
   7   6  -6    9.86    1.20
   7  -6  -6    9.36    1.05
   7  -6  -6   13.57    3.42
   7   6  -6   14.51    3.75
   7  -6  -5 1240.74   52.22
   7  -6  -5 1414.75   60.03
   7   6  -5 1229.67   60.08
   7  -6  -5 1199.11   51.30
   7   6  -5 1341.77   51.67
   7  -6  -5 1242.00   52.69
   7  -6  -5 1215.06   52.33
   7  -6  -4  208.78   10.25
   7  -6  -4  189.80    9.30
   7   6  -4  234.14    9.75
   7  -6  -4  211.52   10.62
   7  -6  -4  231.70   15.60
   7   6  -4  220.25   16.22
   7  -6  -3    4.09    0.64
   7   6  -3    2.51    0.66
   7  -6  -3    2.10    1.49
   7   6  -3    3.76    2.29
   7  -6  -3    2.98    0.99
   7   6  -3    2.21    0.82
   7  -6  -3    3.63    0.94
   7  -6  -2  578.60   25.57
   7  -6  -2  601.36   25.63
   7  -6  -2  577.64   25.78
   7   6  -2  582.75   25.44
   7  -6  -2  609.01   31.53
   7   6  -2  558.06   32.20
   7  -6  -1  144.41    7.67
   7  -6  -1  140.21    8.07
   7  -6  -1  139.40    7.51
   7  -6  -1  137.85    7.66
   7  -6  -1  161.82   12.36
   7   6  -1  151.62   12.87
   7   6  -1  137.01    7.37
   7  -6   0  130.27    7.75
   7  -6   0  141.77    7.36
   7   6   0  119.97    7.16
   7  -6   0  135.36    7.44
   7  -6   0  157.55    8.34
   7   6   0  125.69    7.71
   7   6   0  145.34    7.25
   7  -6   0  132.32    9.07
   7  -6   0  124.69    6.41
   7  -6   0  128.63    7.31
   7   6   0  158.18   10.37
   7   6   0  144.63    6.79
   7  -6   1  206.63   11.18
   7  -6   1  234.76   10.80
   7   6   1  207.99   10.83
   7  -6   1  206.44   10.85
   7  -6   1  232.36   11.62
   7   6   1  203.38   11.17
   7   6   1  214.03   10.49
   7   6   1  253.77   14.27
   7  -6   1  206.30    9.78
   7   6   1  227.90   10.15
   7  -6   1  219.94   12.83
   7  -6   2  372.63   18.29
   7  -6   2  401.67   17.73
   7   6   2  348.79   17.90
   7  -6   2  397.58   18.16
   7   6   2  362.27   18.30
   7  -6   2  454.92   19.05
   7   6   2  380.62   17.46
   7   6   2  391.28   17.41
   7  -6   2  384.53   20.12
   7  -6   2  375.50   16.82
   7   6   2  441.63   21.75
   7   6   2  412.95   17.22
   7  -6   3  213.41   11.67
   7  -6   3  233.21   11.14
   7   6   3  211.72   11.57
   7  -6   3  271.28   12.49
   7  -6   3  230.47   11.65
   7   6   3  200.41   11.68
   7   6   3  225.25   10.86
   7  -6   3  214.28   13.26
   7   6   3  253.04   14.85
   7   6   3  244.35   10.79
   7  -6   3  223.99   10.36
   7  -6   4  165.06    9.42
   7  -6   4  173.82    8.81
   7  -6   4  191.40   10.06
   7   6   4  152.14    9.45
   7  -6   4  169.12    9.38
   7   6   4  165.15    9.48
   7   6   4  166.99    8.60
   7   6   4  187.36    8.63
   7   6   4  190.39   12.52
   7  -6   4  171.69    8.19
   7  -6   5   12.42    1.94
   7  -6   5   11.50    1.52
   7  -6   5   16.03    2.28
   7   6   5   11.25    1.91
   7   6   5   14.45    2.23
   7   6   5   12.68    1.59
   7   6   5   13.14    1.55
   7  -6   5   11.23    1.29
   7  -6   6  212.89   10.96
   7   6   6  175.21   10.47
   7   6   6  189.99   10.58
   7  -6   6  178.40    8.87
   7   6   6  205.22    9.40
   7   6   6  189.50    9.40
   7  -6   6  175.76   10.02
   7  -6   7    2.37    1.16
   7   6   7    1.48    1.10
   7  -6   7    1.29    1.00
   7   6   7    2.43    1.17
   7  -6   7    2.31    0.65
   7   6   7    1.91    0.69
   7   6   7    2.16    0.78
   7  -6   7    2.72    1.02
   7  -6   8  142.18    8.26
   7  -6   8  151.43    8.83
   7   6   8  132.14    8.60
   7  -6   8  126.92    7.76
   7   6   8  153.18    8.88
   7   6   8  141.02    7.45
   7  -6   9  121.13    7.09
   7  -6   9  121.37    7.59
   7   6   9  107.69    7.45
   7  -6   9   97.47    6.34
   7   6   9  121.73    7.59
   7   6   9  111.22    6.24
   7  -6  10   85.17    5.59
   7   6  10   84.55    6.15
   7  -6  10   80.13    5.90
   7   6  10   80.42    4.93
   7   6  10   80.11    5.96
   7   6  11   15.64    1.77
   7  -6  11   20.08    2.64
   7  -6  11   18.77    2.24
   7   6  11   16.80    2.50
   7  -6  12    0.82    0.74
   7   6  12    1.00    1.13
   7  -6  13    3.05    0.91
   7  -6  13    6.78    1.42
   7   6  13    4.94    1.35
   7  -6  14    0.76    0.42
   7   6  14    3.68    1.16
   7   6  14    3.68    1.16
   7  -6  15  118.96    6.20
   7   6  15  109.32    6.33
   7   6  15  131.96    6.66
   7   6  16    4.58    0.91
  -7   7  22   20.36    1.81
  -7   7  21   27.50    2.41
  -7   7  20    2.79    0.61
   7  -7 -20    3.18    0.80
  -7   7  20    2.21    0.62
  -7   7  20    1.91    0.81
   7   7 -19   32.40    2.09
  -7   7  19   30.89    2.46
  -7   7  18    4.98    1.30
   7   7 -17   60.13    3.88
  -7   7  17  163.24    7.11
  -7   7  16   19.29    2.42
   7   7 -16   13.88    1.47
   7   7 -15  441.57   20.71
  -7   7  15  513.16   27.74
  -7   7  14   47.06    6.31
  -7   7  14   47.19    7.54
  -7   7  14   45.67    4.01
   7   7 -14   56.66    7.60
  -7  -7  14   32.47    4.75
  -7   7  13   70.35    9.37
  -7   7  13   73.82    5.29
   7  -7 -13   72.28    8.59
   7   7 -13   54.30    7.78
  -7   7  13   64.33    7.55
  -7   7  12    7.33    2.99
  -7   7  12    7.54    1.60
   7  -7 -12   10.38    3.01
   7   7 -12    7.70    2.70
  -7   7  12    9.21    2.73
   7  -7 -11  137.21   12.28
   7   7 -11  132.57   12.62
  -7   7  11  129.91    7.93
   7  -7 -11  133.38    7.30
  -7   7  11  123.68   13.04
   7  -7 -10   60.45    3.53
   7   7 -10   63.38    3.75
   7  -7 -10   63.73    4.31
  -7   7  10   63.98    4.84
   7  -7 -10   68.03    8.13
   7   7 -10   72.49    8.73
   7  -7  -9   64.00    3.67
   7   7  -9   71.04    3.96
   7  -7  -9   63.75    4.42
  -7   7   9   66.70    4.92
   7  -7  -9   71.89    8.28
   7   7  -9   76.80    8.97
   7  -7  -8  118.39    6.11
   7   7  -8  126.63    6.39
   7  -7  -8  152.22   12.27
   7   7  -8  136.97   12.44
  -7   7   8  140.59    7.76
   7  -7  -8  134.59    7.19
   7  -7  -7    2.92    0.94
   7  -7  -7    2.37    0.56
   7   7  -7    2.29    0.64
  -7   7   7    1.98    0.92
   7  -7  -7    2.92    0.98
  -7   7   7    1.54    1.09
   7  -7  -7    3.95    1.84
   7   7  -7    1.95    1.50
   7   7  -6   15.35    1.81
   7  -7  -6   13.35    1.79
   7  -7  -6   14.68    2.00
  -7   7   6   16.92    2.12
   7  -7  -6   16.05    1.35
   7   7  -6   15.30    1.46
   7   7  -6   13.93    3.63
   7  -7  -6   16.84    3.81
   7   7  -5  309.36   13.19
   7  -7  -5  259.98   13.01
   7  -7  -5  268.07   12.86
   7  -7  -5  285.41   13.56
  -7   7   5  274.44   13.44
   7  -7  -5  255.48   11.93
   7   7  -5  289.33   12.29
   7  -7  -5  301.25   18.55
   7   7  -5  253.78   18.43
   7  -7  -4   50.88    3.58
   7  -7  -4   46.99    6.26
   7   7  -4   55.61    7.20
   7  -7  -4   47.57    2.81
   7   7  -4   55.05    3.10
   7  -7  -4   46.95    3.82
   7  -7  -4   49.80    4.13
   7  -7  -4   48.94    3.66
   7  -7  -3  538.44   23.74
   7  -7  -3  560.44   29.00
   7   7  -3  505.03   29.48
   7  -7  -3  513.76   23.17
   7  -7  -3  528.15   24.06
   7   7  -2    2.44    1.74
   7  -7  -2    5.04    1.23
   7  -7  -2    4.06    1.86
   7   7  -2    4.85    1.07
   7  -7  -2    4.04    1.06
   7  -7  -1    0.80    0.62
   7   7  -1    2.01    1.22
   7  -7  -1    1.65    0.46
   7   7  -1    1.35    0.50
   7  -7  -1    1.20    0.79
   7   7  -1    2.37    0.85
   7  -7  -1    3.28    0.96
   7  -7   0  379.97   20.43
   7  -7   0  379.34   17.60
   7   7   0  418.27   17.96
   7   7   0  463.10   22.23
   7  -7   0  418.53   18.97
   7   7   0  434.65   18.74
   7  -7   0  410.58   19.47
   7   7   0  452.48   18.62
   7  -7   1  289.89   14.49
   7   7   1  317.88   13.14
   7  -7   1  287.40   15.66
   7   7   1  302.27   16.77
   7  -7   1  276.50   12.70
   7  -7   1  313.85   14.21
   7   7   1  280.15   14.17
   7   7   1  298.71   13.69
   7   7   1  254.21   13.59
   7  -7   2  189.33   10.12
   7  -7   2  174.37    8.36
   7   7   2  195.06    8.76
   7  -7   2  168.57   10.96
   7   7   2  187.29   12.10
   7  -7   2  175.67    9.61
   7   7   2  166.68    9.65
   7   7   2  182.58    9.20
   7   7   2  159.75    9.34
   7  -7   3    6.18    1.37
   7  -7   3    6.24    1.47
   7   7   3    2.48    1.10
   7   7   3    4.48    1.17
   7  -7   3    6.39    1.52
   7   7   3    7.34    1.06
   7   7   3    5.65    1.86
   7  -7   3    5.18    0.82
   7  -7   3    4.48    1.48
   7   7   4    6.65    1.48
   7  -7   4    4.35    1.29
   7  -7   4    5.86    1.48
   7   7   4    5.18    1.29
   7  -7   4    5.68    1.47
   7  -7   4    7.30    1.27
   7  -7   4    6.38    0.92
   7   7   4    5.81    0.98
   7   7   5    0.77    0.86
   7  -7   5    2.33    1.12
   7  -7   5    3.01    1.19
   7  -7   5    1.90    0.58
   7   7   5    3.20    0.77
   7   7   5    2.29    0.99
   7  -7   5    1.89    0.95
   7  -7   5    1.71    0.75
   7  -7   6   32.94    3.26
   7  -7   6   40.77    3.64
   7   7   6   30.39    3.26
   7  -7   6   28.36    2.24
   7   7   6   38.80    2.73
   7   7   6   33.22    2.78
   7   7   6   32.49    3.37
   7   7   7    0.61    0.88
   7  -7   7    3.13    1.18
   7   7   7    0.52    0.52
   7   7   7    0.83    0.86
   7  -7   7    0.18    0.80
   7   7   7    1.39    0.73
   7   7   8    2.06    1.12
   7  -7   8    0.54    0.98
   7  -7   8    2.16    1.18
   7  -7   8    3.01    1.02
   7   7   8    1.01    0.70
   7   7   8    2.32    1.22
   7  -7   9  630.83   28.35
   7  -7   9  720.47   29.04
   7   7   9  612.66   28.72
   7   7   9  663.91   27.68
   7  -7   9  564.87   27.76
   7   7   9  646.66   28.98
   7   7  10  118.74    7.47
   7  -7  10  116.17    6.97
   7   7  10  102.36    7.10
   7   7  10  108.58    6.30
   7   7  11   52.77    4.39
   7  -7  11   42.30    3.64
   7  -7  11   57.01    4.23
   7   7  11   52.09    4.24
   7   7  11   46.09    3.37
   7  -7  12    9.63    1.60
   7  -7  12    8.11    1.40
   7   7  12    6.92    1.54
   7   7  12    6.87    1.53
   7  -7  13  206.83   10.10
   7   7  13  189.30   10.45
   7  -7  14   25.02    1.72
   7   7  14    0.55    0.29
   7   7  16  137.18    6.66
  -7   8  22  101.04    5.17
  -7   8  21   15.89    1.67
   7  -8 -20  138.41    7.07
  -7   8  20  140.58    6.77
  -7   8  20  150.76    7.66
  -7   8  19   25.70    2.10
   7  -8 -19   22.92    2.15
  -7   8  19   21.75    1.91
  -7   8  19   27.67    2.64
  -7   8  18  366.85   15.96
   7  -8 -18  347.07   15.26
   7   8 -18  325.22   14.08
   7   8 -17    2.08    0.65
  -7   8  17    1.95    1.04
  -7   8  17    1.94    0.67
   7  -8 -17    0.44    0.22
   7  -8 -17    1.96    0.91
   7   8 -17    0.27    0.16
  -7   8  16  219.64   10.58
   7   8 -16  207.64    8.87
  -7   8  15  102.12    6.21
   7   8 -15   74.17    4.41
  -7   8  14    3.19    1.26
  -7  -8  14    4.05    2.34
  -7   8  14    3.31    1.91
  -7   8  14    1.56    1.04
   7   8 -14    1.51    0.54
  -7   8  13   14.40    4.17
  -7   8  13   10.68    1.93
   7  -8 -13    9.28    1.06
  -7   8  13    9.14    2.78
  -7   8  12    8.59    3.15
  -7   8  12    9.04    1.78
   7  -8 -12    8.35    1.00
   7   8 -12    8.07    1.07
  -7   8  12    5.39    2.14
  -7   8  11   67.68    7.32
  -7   8  11   78.12   10.37
  -7   8  11   76.31    5.56
   7  -8 -11   71.81    3.99
   7   8 -11   77.85    4.22
   7  -8 -11   81.39    4.99
   7  -8 -10   73.36    4.71
  -7   8  10   65.76    6.97
   7   8 -10   68.82    8.20
   7  -8 -10   74.62    5.16
  -7   8  10   67.10    5.15
   7  -8 -10   66.33    3.70
   7   8  -9    1.86    1.24
   7  -8  -9    1.13    0.42
  -7   8   9    0.76    0.76
   7  -8  -9    0.97    0.74
   7  -8  -8    6.27    1.27
   7  -8  -8    3.99    0.66
   7   8  -8    6.66    2.32
   7   8  -8    3.06    0.92
  -7   8   8    5.20    1.35
  -7   8   7   33.29    3.29
   7  -8  -7   33.78    2.97
  -7   8   7   29.27    4.50
   7   8  -7   39.49    2.96
   7   8  -7   32.55    5.39
   7  -8  -6  267.24   13.64
   7  -8  -6  289.24   14.24
  -7   8   6  310.02   14.47
   7   8  -6  268.43   18.72
   7   8  -6  294.78   13.55
   7  -8  -5    1.26    0.71
   7   8  -5    0.62    0.67
  -7   8   5    1.85    0.95
   7   8  -5    2.27    1.31
   7  -8  -5    0.17    0.82
   7  -8  -4    6.64    1.23
   7  -8  -4    7.99    1.67
   7  -8  -4    7.73    1.37
   7   8  -4    7.85    1.37
   7   8  -4    9.54    2.84
   7  -8  -4    8.36    1.57
   7  -8  -3  213.77   10.66
   7  -8  -3  197.54   10.81
   7  -8  -3  197.66    9.97
   7  -8  -2   26.81    2.53
   7  -8  -2   25.69    2.92
   7  -8  -2   25.07    3.17
   7  -8  -2   26.10    2.73
   7   8  -1   51.99    3.72
   7  -8  -1   45.95    3.65
   7  -8  -1   50.15    3.95
   7  -8  -1   47.92    4.55
   7  -8   0  107.75    6.54
   7  -8   0  101.17    7.44
   7   8   0  111.09    6.40
   7   8   0  119.60    6.35
   7  -8   1   64.61    4.61
   7   8   1   56.23    4.14
   7  -8   1   61.11    3.47
   7  -8   1   63.95    5.47
   7   8   1   67.95    4.41
   7   8   1   72.76    4.36
   7  -8   1   64.63    4.97
   7  -8   2 1095.05   44.18
   7   8   2  898.61   43.40
   7  -8   2  978.93   42.32
   7  -8   2 1008.04   45.52
   7   8   2 1112.06   43.46
   7   8   2 1090.55   43.59
   7  -8   2 1103.69   44.76
   7  -8   3  129.68    7.62
   7   8   3  109.73    7.20
   7   8   3  120.29    7.28
   7  -8   3  126.98    6.20
   7   8   3  144.06    7.16
   7  -8   3  136.84    8.06
   7  -8   4   14.18    2.24
   7  -8   4   10.68    1.89
   7   8   4   11.34    1.88
   7   8   4   11.55    1.89
   7   8   4   13.50    1.71
   7  -8   4   13.13    1.29
   7  -8   5    2.03    0.56
   7   8   5    1.47    0.80
   7  -8   5    2.55    1.16
   7   8   5    2.96    1.07
   7  -8   5    2.77    1.17
   7  -8   5    3.54    0.97
   7   8   6   92.45    6.39
   7   8   6   86.36    6.12
   7  -8   6   99.08    6.45
   7   8   6  103.88    5.34
   7  -8   6   99.73    6.53
   7  -8   6  100.36    5.65
   7   8   7   49.96    4.24
   7   8   7   43.54    3.91
   7  -8   7   51.80    4.23
   7   8   8  898.27   38.83
   7   8   8  874.54   38.36
   7  -8   8  875.17   38.23
   7   8   9    0.20    0.92
   7  -8   9    0.31    0.81
   7  -8   9    0.85    1.02
   7   8   9    0.70    0.90
   7   8  10  158.37    9.01
   7   8  10  161.28    8.11
   7  -8  10  147.69    8.07
   7   8  10  141.75    8.44
   7  -8  10  161.77    8.61
   7  -8  11   41.39    3.37
   7   8  11   37.18    3.31
   7   8  11   39.80    3.65
   7   8  11   46.23    3.19
   7  -8  12    1.59    0.80
   7   8  12    0.13    0.15
   7   8  13    9.77    1.58
   7  -8  13    7.01    1.13
   7   8  14   14.89    1.73
   7  -8  14   13.64    1.36
  -7   9  21   45.06    2.94
  -7   9  20   20.48    1.95
  -7   9  20   17.02    1.45
  -7   9  19   46.55    3.43
   7  -9 -19   40.05    2.94
  -7   9  19   43.97    2.92
   7  -9 -18   21.86    2.15
  -7   9  18   26.04    2.60
   7  -9 -17  101.82    5.83
  -7   9  17  107.72    6.37
   7   9 -17   93.12    4.82
  -7   9  16   40.91    3.28
   7  -9 -16   36.84    2.78
   7   9 -16   34.38    1.92
  -7   9  15  435.64   18.37
   7  -9 -15  409.69   17.61
   7   9 -15  400.02   16.34
  -7   9  14   20.24    2.58
   7   9 -14   17.68    1.68
   7   9 -14   11.81    1.43
   7  -9 -14   16.83    2.16
   7  -9 -13   78.15    5.15
  -7   9  13   69.68    5.26
  -7  -9  13   75.37   10.81
   7   9 -13   67.81    4.11
  -7   9  13   81.78   10.11
   7   9 -13   60.64    3.89
  -7   9  13   72.14    7.41
   7   9 -12   78.87    4.61
  -7   9  12   75.75    5.68
   7  -9 -12   86.14    5.11
  -7   9  12   68.66    9.78
   7  -9 -12   77.92    5.43
  -7   9  12   64.28    7.13
   7   9 -11  114.73    6.20
  -7   9  11  117.59    7.44
   7  -9 -11  117.02    6.61
  -7   9  11  103.46   12.49
   7  -9 -11  120.27    7.16
  -7   9  11   93.40    8.90
   7   9 -10  352.06   15.80
   7  -9 -10  355.82   16.30
   7  -9 -10  346.37   16.85
  -7   9  10  298.01   19.15
  -7   9  10  362.79   17.31
   7   9  -9   56.35    3.71
  -7   9   9   51.22    4.45
   7  -9  -9   53.39    3.95
   7  -9  -9   55.42    4.40
  -7   9   9   42.56    5.32
  -7   9   8  251.75   12.49
   7  -9  -8  226.47   11.42
  -7   9   8  202.51   14.67
   7   9  -8  250.71   11.20
  -7   9   8  176.16   13.23
  -7   9   7  205.02   10.58
   7  -9  -7  184.22    9.66
  -7   9   7  172.98   13.05
   7   9  -7  185.95    9.32
  -7   9   7  166.39   11.54
   7   9  -6   95.97    5.54
   7  -9  -6   90.72    5.73
  -7   9   6   91.44    6.27
   7  -9  -5   63.22    4.73
   7  -9  -5   54.34    4.15
   7   9  -5   61.65    4.12
   7  -9  -4  278.19   14.27
   7   9  -4  301.54   13.70
   7  -9  -4  276.84   14.53
   7  -9  -3   79.66    5.55
   7  -9  -3   81.85    5.83
   7   9  -3   91.66    5.25
   7  -9  -3   73.02    4.91
   7  -9  -2    0.60    0.90
   7  -9  -2    0.35    0.73
   7  -9  -2    0.55    0.73
   7  -9  -1   62.72    4.42
   7  -9  -1   59.61    4.94
   7   9  -1   68.41    4.35
   7  -9   0    7.06    1.44
   7   9   0   11.77    1.55
   7  -9   1  201.18   10.73
   7   9   1  219.82   10.45
   7   9   1  202.36   10.49
   7  -9   2  412.17   18.43
   7   9   2  432.09   17.90
   7  -9   2  411.06   19.01
   7   9   3    4.02    1.06
   7  -9   3    4.37    1.33
   7   9   3    3.79    1.00
   7  -9   3    5.62    1.49
   7  -9   4  360.74   17.27
   7   9   4  317.40   16.73
   7  -9   4  349.85   17.60
   7  -9   5   15.46    2.23
   7   9   5   13.97    2.04
   7   9   5   18.13    2.03
   7  -9   5   15.25    2.33
   7   9   6    0.36    0.81
   7  -9   6    0.91    0.98
   7   9   6    2.15    0.92
   7  -9   6    0.98    0.88
   7  -9   6    1.06    0.64
   7  -9   7   29.60    3.06
   7   9   7   23.40    2.78
   7   9   7   27.08    2.55
   7  -9   7   25.38    2.88
   7  -9   8  101.12    6.47
   7   9   8  106.39    6.75
   7  -9   9  362.47   17.02
   7   9   9  364.32   17.53
   7  -9  10    2.81    1.10
   7  -9  10    2.56    0.93
   7   9  10    3.50    1.17
   7   9  11   43.39    3.63
   7  -9  11   40.52    3.26
   7   9  12    8.10    1.48
   7  -9  12    7.79    1.27
   7   9  13   71.43    4.59
   7  -9  13   73.40    4.21
   7  -9  14   43.43    2.80
   7   9  14   64.31    3.61
   7   9  15  137.27    6.61
  -7  10  20   91.47    4.68
  -7  10  20  107.52    5.36
  -7  10  19    8.67    1.31
  -7  10  19    7.84    1.05
  -7  10  18   39.14    3.24
  -7  10  18   42.47    3.03
   7 -10 -18   43.14    2.99
   7 -10 -17  100.42    5.69
  -7  10  17   97.02    6.09
   7 -10 -16   35.94    2.64
   7  10 -16   35.86    1.78
  -7  10  16   39.11    3.11
   7 -10 -15   12.51    1.70
   7  10 -15    9.65    1.09
  -7  10  15   12.60    1.92
   7 -10 -14   82.25    4.99
  -7  10  14   70.49    5.09
   7  10 -14   72.33    3.87
   7  10 -13    7.02    1.06
   7 -10 -13   10.79    1.71
   7  10 -13    9.75    1.23
  -7  10  13   13.08    2.10
   7 -10 -12  259.62   11.81
  -7  10  12  270.91   13.12
   7  10 -12  247.38   11.20
   7 -10 -12  273.93   12.61
  -7  10  11  132.06   10.38
  -7  10  11  153.87   15.13
   7 -10 -11  155.14    7.92
  -7  10  11  162.62    8.99
   7  10 -11  153.01    7.39
   7 -10 -11  159.98    8.59
   7  10 -10  129.42    6.81
  -7  10  10  137.56    8.26
   7 -10 -10  135.94    7.35
  -7  10  10  106.38   13.17
   7 -10 -10  138.64    7.97
  -7  10  10  100.48    9.03
   7  10  -9  103.75    5.54
  -7  10   9   97.86    6.63
   7 -10  -9   92.54    5.81
   7 -10  -9   93.66    6.29
   7 -10  -8   78.17    5.11
  -7  10   8   72.76    5.62
  -7  10   8   63.97    7.34
   7  10  -8   80.07    4.75
   7 -10  -8   82.62    5.67
  -7  10   7    9.65    1.89
  -7  10   7    9.86    2.72
   7  10  -7   12.85    1.62
   7 -10  -7   12.36    1.82
  -7  10   6   52.34    4.40
   7  10  -6   51.03    3.62
   7 -10  -6   47.51    3.78
  -7  10   6   42.69    6.08
   7  10  -5  246.25   11.67
   7 -10  -5  230.09   11.91
   7 -10  -4  609.43   28.08
   7 -10  -4  602.94   28.37
   7  10  -4  649.59   27.34
   7 -10  -3   15.08    2.18
   7 -10  -3   10.10    1.52
   7 -10  -3    9.36    1.97
   7  10  -3    9.22    1.61
   7 -10  -2  336.80   16.08
   7 -10  -2  326.52   17.04
   7  10  -2  357.30   16.05
   7  10  -2  361.49   16.29
   7 -10  -1    2.62    0.98
   7  10  -1    4.12    1.00
   7 -10  -1    2.95    1.32
   7  10  -1    5.26    1.22
   7 -10   0  249.12   12.72
   7 -10   0  251.85   13.54
   7  10   0  273.31   12.56
   7 -10   1   32.56    3.14
   7  10   1   36.09    2.96
   7 -10   2   81.06    5.59
   7 -10   2   81.17    6.04
   7  10   2   89.69    5.33
   7 -10   3  243.64   12.75
   7 -10   3  257.54   13.45
   7  10   3  258.57   12.34
   7 -10   4    1.24    0.96
   7  10   4    0.95    0.70
   7 -10   4    1.68    1.11
   7  10   4   -0.15    0.63
   7 -10   5    0.18    0.92
   7  10   5    0.62    0.65
   7  10   5    0.27    0.70
   7 -10   5    0.61    0.88
   7 -10   6  189.85   10.03
   7  10   6  164.45    9.56
   7 -10   6  184.56   10.21
   7 -10   6  172.78    9.05
   7 -10   7   12.95    2.04
   7  10   7   14.01    1.98
   7 -10   7   13.84    2.07
   7 -10   7   10.37    1.36
   7  10   7   15.21    1.85
   7 -10   8   59.81    4.50
   7  10   8   57.24    4.47
   7 -10   8   62.16    4.60
   7  10   8   67.25    4.29
   7  10   9   48.82    3.94
   7 -10   9   40.94    3.54
   7  10  10  118.73    7.02
   7 -10  10  109.23    6.50
   7  10  11   14.23    1.92
   7 -10  11   16.03    1.82
   7  10  12    0.97    0.67
   7 -10  12    0.59    0.62
   7  10  13    2.17    0.74
   7 -10  13    0.98    0.52
   7  10  14   82.19    4.40
  -7  11  20    6.94    0.91
  -7  11  19   13.83    1.54
  -7  11  19   16.40    1.41
  -7  11  18   35.56    2.83
  -7  11  18   35.36    2.58
   7 -11 -17   34.16    2.62
  -7  11  17   34.96    2.99
   7 -11 -16    4.52    1.07
  -7  11  16    6.16    1.36
   7  11 -15   11.25    1.03
   7 -11 -15   11.36    1.60
  -7  11  15   14.75    1.98
   7  11 -14    0.84    0.49
   7  11 -14    0.14    0.19
   7 -11 -14    1.17    0.78
   7  11 -13  163.23    7.47
  -7  11  13  172.39    9.20
   7 -11 -13  169.53    8.67
   7  11 -12  108.04    5.47
  -7  11  12  110.72    6.97
   7 -11 -12  115.40    6.63
   7 -11 -11  331.73   14.39
  -7  11  11  349.36   15.77
   7  11 -11  312.89   13.70
   7 -11 -11  314.81   14.98
   7 -11 -10    4.71    1.18
  -7  11  10    4.70    2.43
  -7  11  10    4.65    1.55
  -7 -11  10    5.04    2.86
   7  11 -10    3.80    0.96
   7  11 -10    2.48    0.70
   7 -11 -10    5.50    1.44
   7  11  -9   48.82    3.42
  -7  11   9   57.83    4.82
  -7 -11   9   59.13    9.40
   7 -11  -9   66.70    4.36
   7 -11  -9   57.68    4.64
   7  11  -9   63.13    3.85
  -7  11   8    5.80    2.02
  -7  11   8    2.77    1.21
   7 -11  -8    4.16    1.15
   7 -11  -8    2.88    1.26
   7  11  -8    2.54    0.86
   7 -11  -7  291.06   14.24
  -7  11   7  311.87   15.32
  -7  11   7  272.13   18.50
   7  11  -7  287.13   13.65
   7 -11  -7  308.21   14.99
  -7  11   6   60.58    7.45
  -7  11   6   70.72    5.39
   7  11  -6   69.26    4.42
   7 -11  -6   65.85    4.69
   7  11  -5  493.07   21.32
   7 -11  -5  459.67   21.69
   7  11  -4   55.81    3.93
   7 -11  -4   51.22    4.55
   7  11  -3  381.73   17.53
   7 -11  -3  356.44   18.49
   7  11  -3  398.20   17.40
   7  11  -2  103.68    6.02
   7 -11  -2   88.94    5.73
   7 -11  -2   90.60    6.62
   7  11  -2  110.81    5.89
   7  11  -1    3.12    1.02
   7 -11  -1    1.14    0.78
   7  11  -1    3.58    1.01
   7 -11  -1    4.28    1.47
   7  11   0   25.15    2.40
   7 -11   0   25.11    2.62
   7 -11   0   23.66    2.96
   7 -11   1    7.75    1.56
   7  11   1    6.56    1.26
   7 -11   2    1.31    0.89
   7  11   2    3.01    0.90
   7  11   3   37.28    3.07
   7 -11   3   39.20    3.43
   7 -11   3   33.54    3.59
   7  11   4   73.20    4.70
   7 -11   4   69.74    5.03
   7 -11   4   71.63    5.48
   7  11   5  106.94    5.75
   7 -11   5   95.61    6.01
   7  11   5   76.47    5.28
   7 -11   5   89.13    6.22
   7  11   6   12.55    1.66
   7 -11   6   10.25    1.79
   7  11   6   10.95    1.61
   7 -11   6   13.20    2.06
   7 -11   6    7.56    1.27
   7 -11   7   43.14    3.54
   7 -11   7   37.25    3.47
   7 -11   7   34.13    2.64
   7  11   7   35.25    3.12
   7 -11   8    1.93    1.02
   7  11   8    1.26    0.75
   7 -11   8    2.03    0.99
   7  11   8    1.58    0.75
   7  11   9   24.31    2.26
   7 -11   9   24.13    2.45
   7 -11   9   19.49    2.19
   7  11   9   24.15    2.39
   7  11  10   12.81    1.54
   7 -11  10   11.00    1.48
   7  11  10    9.99    1.54
   7  11  11   14.73    1.67
   7  11  12    6.65    1.02
   7 -11  12    8.99    1.16
   7  11  13    0.27    0.36
   7 -11  13    0.90    0.43
  -7  12  19   12.31    1.07
  -7  12  19   13.39    1.29
  -7  12  18  123.32    6.14
  -7  12  18  126.66    6.48
  -7  12  17   69.27    4.40
  -7  12  17   70.94    4.17
  -7  12  16   26.63    2.54
   7 -12 -16   25.85    2.19
  -7  12  15   23.42    2.47
   7 -12 -15   20.68    2.08
  -7  12  14   38.95    3.06
   7 -12 -14   37.43    2.68
   7  12 -14   34.61    1.70
   7  12 -13   85.52    2.85
   7 -12 -13   83.71    4.15
  -7  12  12  260.55   12.18
   7  12 -12  237.37   10.24
   7 -12 -12  247.33   11.56
   7  12 -11  174.72    8.10
   7 -12 -11  180.91    9.33
  -7  12  11  181.08    9.79
   7 -12 -11  183.92    8.74
   7 -12 -10    4.06    1.12
  -7  12  10    2.46    1.17
   7  12 -10    4.42    0.91
   7  12 -10    2.80    0.69
   7 -12 -10    2.09    1.11
  -7  12   9  186.08   10.03
   7 -12  -9  177.28    8.91
   7 -12  -9  176.07    9.46
   7  12  -9  173.48    8.27
   7  12  -8   14.67    1.56
  -7  12   8   19.48    2.63
   7 -12  -8   16.19    2.01
   7 -12  -8   17.78    2.35
   7  12  -8   14.38    1.65
  -7  12   7    5.45    2.01
  -7  12   7    7.21    1.73
  -7 -12   7    5.52    2.61
   7 -12  -7    5.69    1.37
   7 -12  -7    5.27    1.45
   7  12  -7    6.48    1.15
   7 -12  -6  145.61    7.85
  -7  12   6  138.23    8.48
  -7 -12   6  111.60   12.77
  -7  12   6  103.80   10.52
   7  12  -6  138.91    7.27
   7 -12  -6  144.53    8.35
  -7  12   5   18.18    3.78
   7  12  -5   19.53    2.01
   7 -12  -5   14.10    2.03
   7  12  -5   19.37    1.91
  -7 -12   5   12.05    3.78
   7  12  -4   82.45    5.03
   7 -12  -4   81.10    5.89
   7  12  -4   83.10    4.89
  -7 -12   4   67.63    9.37
   7 -12  -3  217.50   11.76
   7  12  -3  217.05   10.42
   7  12  -3  210.15   10.61
   7 -12  -2   41.32    3.25
   7 -12  -2   43.93    4.07
   7  12  -2   45.13    3.25
   7 -12  -1   37.45    3.16
   7 -12  -1   39.78    3.86
   7  12  -1   43.69    3.17
   7 -12   0  218.44   11.24
   7 -12   0  228.71   12.29
   7  12   0  233.48   11.07
   7 -12   1    4.43    1.57
   7  12   1    4.30    1.04
   7 -12   1    3.71    1.12
   7 -12   2  111.33    6.78
   7  12   2  118.10    6.49
   7 -12   3  392.88   18.67
   7  12   3  411.69   18.27
   7 -12   4   32.72    3.18
   7 -12   4   34.23    3.53
   7  12   4   39.68    3.05
   7 -12   5   57.36    4.33
   7 -12   5   53.07    4.52
   7  12   5   66.37    4.15
   7 -12   6    1.36    0.96
   7  12   6    3.15    0.96
   7 -12   6    2.65    1.03
   7 -12   6    2.99    0.82
   7  12   7   -0.11    0.25
   7 -12   7  161.05    5.73
   7  12   7  170.95    5.24
   7 -12   7  149.33    5.85
   7 -12   7    6.62    0.96
   7 -12   8  112.56    4.60
   7  12   8  115.95    4.23
   7 -12   8  106.44    4.63
   7 -12   9   18.81    1.86
   7  12   9   18.97    1.70
   7 -12   9   20.40    1.91
   7 -12  10  120.12    4.02
   7 -12  10  140.99    4.50
   7  12  11    0.22    0.14
   7 -12  12   68.30    3.74
  -7  13  18  162.83    7.38
  -7  13  18  162.64    7.64
  -7  13  17   44.40    2.86
  -7  13  17   51.15    3.20
  -7  13  16    2.99    0.82
   7 -13 -15  183.14    9.05
  -7  13  15  199.62    9.67
   7 -13 -14  124.01    6.63
  -7  13  14  124.73    7.10
   7 -13 -13    1.11    0.64
  -7  13  13    0.48    0.69
   7  13 -12   94.78    2.90
  -7  13  12   94.63    4.81
   7 -13 -12   99.12    4.40
   7 -13 -11   88.66    3.67
  -7  13  11   97.23    5.05
   7  13 -11   79.66    2.86
   7 -13 -11   92.50    4.42
   7  13 -10  150.79    6.85
   7 -13 -10  152.64    8.00
  -7  13  10  161.32    8.56
   7 -13 -10  149.98    7.41
   7  13  -9    0.79    0.57
   7 -13  -9    0.77    0.71
  -7  13   9    1.58    1.14
   7 -13  -9   -0.17    0.90
   7  13  -9    0.83    0.41
   7  13  -8    0.09    0.51
   7  13  -8    0.87    0.48
   7 -13  -8    0.81    0.81
   7  13  -8    0.40    0.42
  -7  13   8    0.81    0.90
   7 -13  -8    0.52    0.94
   7 -13  -7  194.65    9.88
   7  13  -7  197.15    9.08
  -7  13   7  222.92   11.11
   7  13  -7  204.21    9.35
   7  13  -6    0.95    0.64
   7  13  -6    0.26    0.44
   7 -13  -6    0.59    0.83
   7  13  -6    1.00    0.49
  -7  13   6    1.84    1.03
  -7  13   5   39.94    3.79
   7  13  -5   37.62    2.88
   7  13  -5   36.73    2.68
   7 -13  -5   34.78    3.22
   7  13  -4  159.83    7.94
   7  13  -3  388.01   17.21
   7 -13  -3  384.46   18.68
   7  13  -2   19.79    1.94
   7 -13  -2   21.23    2.69
   7  13  -1    9.30    1.32
   7 -13  -1    8.47    1.34
   7 -13  -1    8.86    1.85
   7  13   0   95.67    5.38
   7 -13   0   88.80    5.46
   7 -13   0   94.98    6.43
   7  13   1   56.16    3.71
   7 -13   1   56.55    3.96
   7 -13   1   49.94    4.47
   7  13   2   60.36    3.83
   7 -13   2   52.04    3.93
   7 -13   2   51.93    4.50
   7 -13   3    6.45    1.33
   7  13   3    7.03    1.30
   7  13   4  379.65   16.44
   7 -13   4  340.84   16.66
   7  13   5  265.06   11.45
   7 -13   5  232.42   11.64
   7 -13   5  235.31   12.16
   7 -13   5  218.36   11.12
   7  13   6   46.01    3.06
   7 -13   6   42.26    3.25
   7 -13   6   37.69    3.38
   7 -13   7    1.84    0.85
   7 -13   7    0.36    0.18
   7 -13   7    2.45    1.09
   7  13   7    1.93    0.75
   7 -13   8  205.70   10.21
   7 -13   8  192.43   10.27
   7 -13   9  148.30    7.54
   7 -13   9  150.60    7.60
   7 -13  10   69.30    3.70
   7 -13  10   49.49    3.29
  -7  14  17   44.52    2.53
  -7  14  17   46.69    2.72
  -7  14  16   17.39    1.50
  -7  14  16   19.61    1.72
  -7  14  15  197.90    9.54
  -7  14  14  152.86    7.94
  -7  14  13  118.86    6.73
  -7  14  12    8.42    1.52
  -7  14  11   13.73    1.93
   7 -14 -10   82.84    3.44
  -7  14  10   83.31    4.50
   7  14  -9   12.82    1.05
   7 -14  -9   15.00    1.61
  -7  14   9   12.05    1.91
   7 -14  -8  191.24    5.66
  -7  14   8  198.02    7.23
   7  14  -7   32.59    1.81
   7 -14  -7   40.09    2.78
  -7  14   7   32.95    3.09
   7  14  -6    1.81    0.62
   7 -14  -6    3.36    1.02
   7  14  -6    0.91    0.39
  -7  14   6    3.02    1.17
   7  14  -5    4.54    0.82
   7 -14  -5    6.39    1.28
   7  14  -5    3.48    0.71
  -7  14   5    5.29    1.49
   7  14  -4   93.16    5.04
   7 -14  -4   97.93    5.89
   7  14  -3   22.09    1.89
   7 -14  -2    3.30    1.20
   7  14  -2    2.66    0.71
   7  14  -1   36.92    2.63
   7 -14  -1   32.01    3.36
   7  14   0    1.98    0.70
   7 -14   0    1.10    1.02
   7 -14   0    1.67    0.76
   7 -14   1  364.31   17.13
   7  14   1  365.25   15.77
   7 -14   1  331.38   15.89
   7 -14   2  332.94   15.97
   7  14   2  341.93   14.75
   7 -14   2  305.01   14.86
   7 -14   3   17.63    2.40
   7  14   3   21.46    1.94
   7 -14   3   18.90    2.01
   7  14   4    0.85    0.63
   7 -14   4    0.11    0.55
   7 -14   4    0.24    0.76
   7 -14   5    8.48    1.24
   7  14   5   10.87    1.32
   7 -14   5   11.20    1.52
   7 -14   6    0.14    0.68
   7 -14   6   -0.15    0.51
   7  14   6    0.09    0.47
   7 -14   6    0.22    0.66
   7 -14   7  154.05    8.41
   7 -14   7  153.32    8.12
   7 -14   8  157.71    7.98
   7 -14   8  160.76    7.82
   7 -14   9    5.74    0.95
   7 -14   9    7.37    0.99
   7 -14  10    2.04    0.56
  -7  15  15   99.20    4.91
  -7  15  15  104.54    5.22
  -7  15  14   76.17    4.22
  -7  15  14   67.83    3.83
  -7  15  13   18.76    1.89
  -7  15  12    0.36    0.63
  -7  15  11    0.26    0.57
  -7  15  10   93.96    5.64
   7 -15 -10   87.55    4.76
  -7  15   9   36.17    3.16
   7 -15  -9   35.30    2.60
  -7  15   8  182.93    9.54
   7 -15  -8  171.91    8.64
  -7  15   7  167.75    9.09
   7 -15  -7  162.51    8.29
  -7  15   6   96.71    5.90
   7  15  -6   80.99    4.25
   7 -15  -6   91.07    5.20
  -7  15   5  103.16    6.06
   7 -15  -5   93.07    5.33
  -7  15   4    7.63    1.60
   7  15  -4    6.29    0.88
  -7  15   3  225.14   11.22
   7  15  -3  201.48    9.59
   7 -15  -3  228.52   10.69
   7  15  -2    6.04    0.90
   7 -15  -2    7.99    1.40
   7  15  -1   72.53    4.00
   7 -15  -1   74.44    5.07
   7  15   0  261.70   11.87
   7 -15   0  274.47   13.26
   7 -15   1   83.86    5.31
   7  15   1   77.10    4.19
   7 -15   1   69.72    4.20
   7 -15   2  142.48    7.65
   7 -15   2  132.54    6.93
   7  15   2  138.06    6.45
   7 -15   3   58.98    4.40
   7 -15   3   63.33    4.01
   7  15   3   67.51    3.72
   7 -15   3   65.39    3.90
   7 -15   4    2.08    0.89
   7 -15   4    1.53    0.66
   7  15   4    1.02    0.45
   7 -15   4    2.19    0.69
   7 -15   5    9.24    1.13
   7  15   5   10.75    1.16
   7 -15   5    8.99    1.21
   7  15   6   75.96    2.62
   7 -15   6   64.19    2.76
   7 -15   7   50.61    3.44
   7 -15   7   55.76    3.25
   7 -15   8    0.86    0.50
   7 -15   8    0.32    0.42
   7 -15   9   16.37    1.31
  -7  16  13   57.21    3.17
  -7  16  13   69.16    3.64
  -7  16  12    1.39    0.57
  -7  16  11   10.65    1.37
  -7  16  10   86.82    5.06
   7 -16  -9  155.97    7.47
  -7  16   9  167.52    8.33
   7 -16  -8  477.05   20.39
  -7  16   8  470.45   21.16
   7 -16  -7    3.69    0.90
  -7  16   7    5.96    1.26
   7 -16  -6  158.20    7.83
  -7  16   6  156.40    8.42
   7 -16  -5  195.98    9.51
  -7  16   5  199.63   10.13
   7 -16  -4    2.63    0.92
  -7  16   4    4.00    1.06
   7 -16  -3   21.39    2.06
  -7  16   3   19.29    2.17
   7 -16  -2  197.02    9.55
  -7  16   2  191.57    9.87
   7 -16  -1  198.43    8.93
  -7  16   1  186.97    9.12
   7  16   0    2.48    0.50
   7  16   1   15.33    1.28
   7 -16   1   20.23    1.88
   7 -16   1   16.85    1.97
   7  16   2   14.20    1.22
   7 -16   2   17.58    1.98
   7 -16   2   16.90    1.68
   7  16   3   11.76    1.07
   7 -16   3   13.64    1.68
   7 -16   3   12.12    1.35
   7 -16   3   11.03    1.12
   7  16   4   50.92    2.77
   7 -16   4   48.35    2.92
   7 -16   4   55.21    3.65
   7 -16   4   53.73    3.09
   7 -16   5    0.58    0.39
   7 -16   5    0.20    0.53
   7 -16   5    0.27    0.37
   7 -16   6   35.26    2.18
  -7  17  11    8.19    0.97
  -7  17  10    6.75    0.99
  -7  17   9   16.55    1.62
  -7  17   8   25.70    2.10
   7 -17  -8   23.02    1.65
  -7  17   7   15.06    1.64
   7 -17  -7   17.30    1.44
  -7  17   6   86.95    5.03
   7 -17  -6   88.92    4.64
  -7  17   5   58.07    3.79
   7 -17  -5   58.90    3.46
  -7  17   4   11.24    1.51
   7 -17  -4   13.47    1.40
  -7  17   3   37.93    2.93
   7 -17  -3   40.22    2.72
  -7  17   2  179.31    9.05
   7 -17  -2  194.68    8.93
  -7  17   1  107.27    6.08
   7 -17  -1  132.34    6.21
  -7  17   0   39.42    2.72
  -7  17  -1   11.18    1.30
   7 -17   1   18.09    1.55
   7 -17   2    0.76    0.48
   7 -17   3   69.30    3.69
   7 -17   4    0.05    0.29
  -7  18   7    0.73    0.40
  -7  18   6   39.47    2.47
   7 -18  -6   36.79    2.16
  -7  18   5    2.70    0.61
   7 -18  -5    3.73    0.60
  -7  18   4   24.66    1.97
   7 -18  -4   32.41    1.98
  -7  18   3   25.62    1.99
   7 -18  -3   32.26    2.03
  -7  18   2   36.07    2.51
   7 -18  -2   51.51    2.71
   7 -18  -1   82.61    4.23
   7 -18   1    7.07    0.83
   7 -18   2    6.54    0.73
   8   0 -23    0.31    0.24
  -8   0  22   80.91    4.24
  -8   0  21    0.36    0.61
  -8   0  20    4.32    1.08
  -8   0  19   -0.16    0.72
  -8   0  18  488.33   22.33
  -8   0  17    0.34    0.82
  -8   0  16   43.77    3.73
  -8   0  16   35.22    5.78
   8   0 -15    1.79    2.06
  -8   0  15    2.45    1.58
  -8   0  15    0.86    0.77
  -8   0  14    6.68    2.56
  -8   0  14   11.76    1.79
   8   0 -13    1.74    1.42
  -8   0  13   -0.16    0.60
   8   0 -12  583.83   34.49
  -8   0  12  554.86   24.87
   8   0 -11    0.82    1.63
   8   0 -10  378.20   25.38
   8   0  -9    0.76    1.97
   8   0  -8 1073.09   51.99
   8   0  -8  987.16   41.51
   8   0  -7    0.52    0.66
   8   0  -7    1.47    0.60
   8   0  -7    1.47    1.69
   8   0  -6   60.78    3.64
   8   0  -6   60.74    4.17
   8   0  -6   69.14    8.75
   8   0  -5   -0.13    0.59
   8   0  -5    0.70    1.39
   8   0  -5    1.06    0.53
   8   0  -4    1.05    0.71
   8   0  -4    1.34    0.50
   8   0  -3    1.06    0.70
   8   0  -3    1.36    1.92
   8   0  -3    0.70    0.45
   8   0  -2   50.27    3.66
   8   0  -2   48.67    7.21
   8   0  -2   48.76    3.04
   8   0  -1    1.96    1.28
   8   0  -1    0.27    0.67
   8   0  -1    2.73    1.93
   8   0   0  466.07   21.09
   8   0   0  449.09   27.08
   8   0   0  419.97   18.47
   8   0   1    0.38    1.16
   8   0   1    0.54    0.45
   8   0   1    0.77    0.41
   8   0   1    1.13    1.04
   8   0   2  693.51   31.35
   8   0   2  592.17   26.13
   8   0   2  590.14   25.77
   8   0   2  649.44   28.57
   8   0   2  650.37   27.24
   8   0   3    1.21    0.93
   8   0   3    0.10    0.40
   8   0   3    2.04    0.54
   8   0   3   -0.16    0.70
   8   0   3    1.21    1.08
   8   0   4    4.61    1.89
   8   0   4    4.27    0.92
   8   0   4    7.06    1.88
   8   0   4    5.22    0.80
   8   0   4    6.09    1.38
   8   0   5    1.31    0.87
   8   0   5   -0.26    1.09
   8   0   5    0.44    1.33
   8   0   5    0.21    0.54
   8   0   5    1.01    1.09
   8   0   5    0.46    0.35
   8   0   6   17.17    2.20
   8   0   6   14.66    2.76
   8   0   6   15.54    1.74
   8   0   6   17.20    2.46
   8   0   6   13.76    1.39
   8   0   7    0.56    1.20
   8   0   7    0.63    1.06
   8   0   7    1.02    0.73
   8   0   7    0.17    0.74
   8   0   8  240.74   11.82
   8   0   8  262.76   14.32
   8   0   8  253.58   12.60
   8   0   8  257.73   13.30
   8   0   9    1.10    1.27
   8   0   9    1.43    1.27
   8   0   9    1.22    0.84
   8   0   9    0.79    0.68
   8   0  10  434.06   20.76
   8   0  10  501.05   23.12
   8   0  10  488.20   21.91
   8   0  11    0.34    0.49
   8   0  11   -0.25    1.14
   8   0  12  135.38    8.58
   8   0  13    0.97    1.10
   8   0  14   30.38    2.98
   8   0  15   -0.38    0.74
   8   0  16  401.27   17.60
   8   1 -23   25.72    1.52
  -8   1  22    1.34    0.57
  -8  -1  21    1.84    0.73
  -8   1  21    2.05    0.80
  -8  -1  20   10.02    1.55
  -8   1  20   10.14    1.58
  -8  -1  19    3.20    1.02
  -8   1  19    3.12    0.99
  -8   1  18   20.77    2.45
  -8  -1  18   22.74    2.52
  -8   1  17   39.01    3.53
  -8  -1  17   41.62    3.59
   8  -1 -16  177.87   16.36
  -8   1  16  172.95    9.51
  -8  -1  16  190.18    9.74
  -8  -1  16  143.67   13.15
  -8   1  16  157.66   13.28
  -8  -1  15    5.04    2.20
  -8   1  15    4.67    2.04
   8  -1 -15   11.52    3.97
  -8  -1  15    7.73    1.57
  -8   1  15    7.02    1.40
  -8   1  14  229.38   17.10
  -8  -1  14  259.16   12.99
  -8   1  14  270.12   13.07
   8  -1 -14  256.03   20.62
  -8   1  13  124.99   11.21
   8  -1 -13  146.51   14.23
  -8   1  13  127.64    7.53
  -8  -1  13  136.69    7.66
   8  -1 -12   31.76    6.58
  -8   1  12   39.23    3.28
   8  -1 -11  472.42   29.80
   8  -1 -10    1.56    2.01
   8  -1  -9  325.48   22.72
   8   1  -8   95.93    5.18
   8  -1  -8   89.42   10.34
   8   1  -7  621.13   26.48
   8  -1  -7  645.17   35.59
   8  -1  -7  619.87   27.13
   8   1  -6    8.46    1.13
   8  -1  -6    9.82    3.36
   8  -1  -6   10.35    1.53
   8   1  -6   10.62    1.56
   8   1  -5  607.27   25.84
   8  -1  -5  646.77   34.85
   8  -1  -5  599.81   26.58
   8   1  -5  613.99   26.67
   8   1  -4    1.37    0.56
   8  -1  -4    2.69    2.06
   8  -1  -4    0.71    0.47
   8   1  -4    0.53    0.72
   8  -1  -4    1.04    0.72
   8   1  -3  364.55   15.90
   8  -1  -3  371.22   23.73
   8   1  -3  351.45   16.70
   8  -1  -3  371.15   16.75
   8   1  -2  278.26   12.13
   8  -1  -2  290.85   19.65
   8  -1  -2  278.85   13.01
   8   1  -2  290.18   13.10
   8   1  -2  241.94   12.11
   8  -1  -1   94.61   10.22
   8  -1  -1   88.48    6.33
   8  -1  -1   93.08    5.50
   8   1  -1   81.99    4.64
   8  -1   0   95.14    5.66
   8  -1   0  101.36    6.67
   8   1   0   77.34    4.58
   8   1   0   94.34    4.79
   8  -1   0  103.38   10.70
   8   1   1   17.31    1.67
   8   1   1   19.76    3.39
   8  -1   1   17.94    2.66
   8   1   1   18.57    2.15
   8   1   1   14.95    1.47
   8   1   2    7.57    1.14
   8   1   2    7.98    2.18
   8   1   2    4.81    1.27
   8   1   2    5.77    0.89
   8  -1   2    5.62    1.68
   8   1   2    5.29    1.27
   8   1   3   37.47    3.54
   8   1   3   39.71    2.84
   8   1   3   38.40    5.00
   8   1   3   33.53    2.47
   8  -1   3   38.25    3.38
   8  -1   3   39.32    4.05
   8   1   3   42.35    3.38
   8  -1   4   12.20    1.89
   8   1   4   12.42    1.84
   8   1   4   11.59    1.99
   8  -1   4   14.38    2.48
   8   1   4   10.66    1.27
   8   1   4   11.15    2.71
   8   1   4   14.35    1.61
   8  -1   5   16.45    2.13
   8   1   5   13.77    1.97
   8  -1   5   14.94    2.55
   8   1   5   12.52    3.05
   8   1   5   11.27    1.50
   8   1   5   11.69    1.30
   8   1   6  134.86    7.21
   8   1   6  127.63    6.74
   8  -1   6  142.10    8.05
   8  -1   6  154.82    9.46
   8   1   6  146.41    7.94
   8  -1   7   70.47    4.91
   8   1   7   65.22    4.64
   8  -1   7   73.26    6.01
   8   1   7   56.98    3.68
   8   1   7   66.46    5.26
   8   1   7   68.17    4.26
   8  -1   8   19.45    2.40
   8   1   8   17.48    2.16
   8   1   8   19.82    2.01
   8  -1   8   18.31    2.89
   8   1   8   17.65    1.66
   8   1   8   17.95    2.58
   8   1   9   12.68    1.59
   8  -1   9   12.81    2.50
   8   1   9   10.65    1.27
   8   1   9   16.26    2.44
   8  -1   9   16.99    2.10
   8   1   9    9.30    1.56
   8   1  10  234.86   11.91
   8  -1  10  253.10   13.02
   8  -1  10  221.10   11.02
   8   1  11   -0.37    0.99
   8  -1  11    1.24    0.70
   8  -1  11    0.73    1.19
   8  -1  12  114.83    7.60
   8  -1  13    3.79    1.37
   8  -1  14   16.47    2.16
   8  -1  15   91.88    5.44
   8  -1  16    0.58    0.51
   8  -2 -23   26.64    1.58
   8   2 -23   29.84    1.61
  -8   2  22   17.60    1.74
  -8   2  21   14.93    1.78
  -8  -2  20  613.52   26.45
  -8   2  20  593.08   26.53
  -8  -2  19  171.12    9.00
  -8   2  19  163.79    8.98
  -8   2  18   60.69    4.61
  -8  -2  18   70.72    4.82
  -8  -2  17    7.93    1.54
  -8   2  17    5.31    1.34
  -8  -2  16  269.74   13.08
  -8   2  16  256.52   12.98
   8  -2 -15  320.87   23.43
   8   2 -15  316.06   23.53
  -8  -2  15  276.27   20.32
  -8   2  15  267.56   19.17
  -8   2  15  327.49   15.52
  -8  -2  15  338.14   15.58
   8  -2 -14  122.77   12.95
   8   2 -14   93.51   11.68
  -8   2  14   92.24    9.42
  -8   2  14  112.08    6.77
  -8  -2  14  114.04    6.78
  -8   2  13   16.78    2.10
  -8  -2  13   17.15    2.15
  -8   2  13   18.18    3.85
   8  -2 -13   22.02    5.30
   8   2 -13    7.86    3.41
  -8   2  12    5.04    1.19
  -8   2  12    4.48    2.00
   8  -2 -12    4.93    3.01
   8   2 -12    3.42    2.62
   8  -2 -11    0.79    1.59
   8   2 -11    0.83    1.36
  -8   2  11    3.44    0.95
   8  -2 -10   22.24    5.16
   8   2 -10   20.25    4.93
   8  -2  -9   40.13    6.86
   8   2  -9   36.26    6.96
  -8   2   9   46.80    5.85
   8  -2  -8   92.32    5.08
   8   2  -8   95.19    5.20
   8  -2  -8  101.38    5.73
   8  -2  -8   87.03   10.25
   8   2  -8   96.41   10.85
   8  -2  -7    9.21    1.44
   8  -2  -7   10.50    1.24
   8   2  -7   10.22    1.28
   8  -2  -7   12.08    3.69
   8   2  -7   10.60    3.52
   8  -2  -6   46.16    2.98
   8   2  -6   46.32    3.04
   8  -2  -6   48.02    3.52
   8  -2  -6   49.15    7.17
   8   2  -6   52.36    7.66
   8  -2  -5   89.91    4.88
   8   2  -5   95.31    5.03
   8   2  -5   90.91    5.62
   8  -2  -5   94.51   10.16
   8   2  -5   97.83   10.71
   8  -2  -5   96.42    5.61
   8  -2  -4   14.59    1.79
   8  -2  -4   11.54    1.61
   8   2  -4   14.41    1.80
   8  -2  -4   12.51    1.31
   8   2  -4   15.59    1.48
   8  -2  -4   13.66    1.59
   8  -2  -4   14.63    3.88
   8   2  -4   17.72    4.44
   8  -2  -3  122.53    6.73
   8   2  -3  116.93    6.66
   8  -2  -3  120.96    6.56
   8  -2  -3  116.69    5.87
   8   2  -3  123.98    6.01
   8  -2  -3  104.54    6.15
   8  -2  -3  112.24   11.29
   8   2  -3  122.61   12.16
   8  -2  -2   57.87    3.94
   8   2  -2   61.16    3.69
   8  -2  -2   46.00    7.01
   8   2  -2   57.63    8.00
   8  -2  -2   55.58    4.04
   8  -2  -1  375.30   16.60
   8  -2  -1  388.58   23.87
   8   2  -1  404.62   24.68
   8   2  -1  335.54   15.95
   8  -2  -1  365.84   16.85
   8  -2  -1  383.68   18.20
   8   2  -1  366.43   17.91
   8   2   0   52.30    3.35
   8  -2   0   59.09    3.87
   8   2   0   51.25    3.32
   8  -2   0   56.51    5.81
   8   2   0   62.08    6.17
   8  -2   0   49.77    3.30
   8   2   0   54.72    3.46
   8   2   0   45.06    7.26
   8  -2   0   62.13    8.06
   8  -2   0   59.00    4.12
   8   2   0   57.04    4.01
   8  -2   0   58.60    4.87
   8   2   0   59.85    4.86
   8  -2   1   31.58    4.28
   8   2   1   33.73    4.53
   8  -2   1   28.96    2.26
   8   2   1   30.83    2.38
   8  -2   1   29.44    3.36
   8   2   1   31.91    3.47
   8  -2   1   31.16    2.89
   8   2   1   25.72    2.64
   8   2   1   26.41    2.14
   8   2   1   34.52    2.35
   8  -2   2  106.97    7.21
   8   2   2  104.05    7.09
   8   2   2  100.20    6.08
   8   2   2   96.61    5.29
   8   2   2   99.35    6.44
   8  -2   2  100.34    5.39
   8   2   2   98.44    5.48
   8   2   2  111.66    8.99
   8  -2   2  117.25    8.85
   8  -2   3  195.34   10.82
   8   2   3  170.79   10.39
   8   2   3  181.75    9.38
   8  -2   3  173.72    9.50
   8   2   3  166.92    8.40
   8   2   3  162.02    9.68
   8  -2   3  176.16    8.57
   8   2   3  186.59    8.77
   8   2   3  213.42   13.24
   8  -2   3  174.32   12.06
   8  -2   4  340.47   15.78
   8  -2   4  344.37   17.04
   8   2   4  335.12   16.90
   8   2   4  327.34   15.44
   8   2   4  302.82   14.37
   8   2   4  329.11   16.18
   8   2   4  334.92   14.82
   8  -2   4  316.26   14.58
   8  -2   4  311.50   18.60
   8   2   4  328.17   19.27
   8  -2   5  114.89    6.92
   8  -2   5  124.86    8.14
   8   2   5  109.13    7.71
   8   2   5  111.60    6.59
   8   2   5  101.31    5.71
   8   2   5  109.13    7.23
   8   2   5  113.70    6.13
   8  -2   5  106.66    9.09
   8   2   5  130.56   10.20
   8  -2   5  107.82    5.92
   8  -2   6  144.70    7.61
   8   2   6  147.40    7.78
   8   2   6  146.19    7.42
   8   2   6  148.31    8.26
   8  -2   6  161.28    9.88
   8   2   6  153.32    9.65
   8  -2   6  165.70    8.79
   8  -2   7  144.39    7.96
   8  -2   7  143.25    9.15
   8   2   7  138.60    8.97
   8  -2   7  121.74    6.79
   8   2   7  133.29    7.06
   8   2   7  121.93    6.56
   8   2   7  132.54    7.44
   8  -2   8    7.06    2.09
   8   2   8    5.73    1.85
   8   2   8    6.29    1.18
   8  -2   8    5.39    1.06
   8  -2   8    6.79    1.52
   8   2   8    4.61    1.16
   8   2   8    5.79    0.97
   8  -2   9  205.73   10.41
   8   2   9  204.99   11.77
   8  -2   9  212.20   11.86
   8   2   9  218.02   11.20
   8  -2   9  192.81    9.44
   8   2   9  194.95    9.64
   8   2   9  181.12    9.11
   8   2   9  179.70    9.69
   8   2  10  418.60   19.62
   8  -2  10  434.06   20.53
   8   2  10  391.52   20.23
   8  -2  10  391.27   18.68
   8   2  11  278.65   13.78
   8  -2  11  296.04   14.66
   8   2  11  267.99   14.45
   8  -2  11  253.52   12.80
   8   2  12    0.82    0.83
   8  -2  12    0.21    0.97
   8   2  12   -0.22    1.31
   8  -2  12    0.41    0.31
   8  -2  13    0.90    1.00
   8   2  13    0.38    1.14
   8  -2  14   46.42    3.77
   8   2  14   48.53    3.91
   8  -2  15    8.15    1.29
   8   2  15    5.36    1.16
   8  -2  16   13.56    1.38
   8   2  16   13.02    1.42
   8  -3 -22   58.91    3.15
   8   3 -22   65.74    3.21
  -8   3  21   99.73    5.71
  -8   3  20   40.76    3.29
  -8   3  19  337.37   15.96
  -8  -3  18  134.60    7.40
  -8   3  18  115.21    7.18
  -8  -3  17   16.23    2.15
  -8   3  17   14.51    2.05
  -8   3  16  141.95    8.09
  -8  -3  16  134.44    7.92
  -8   3  15    4.08    1.68
   8  -3 -15    5.90    2.93
   8   3 -15    4.28    2.62
  -8  -3  15    5.25    1.30
  -8   3  15    6.08    1.43
  -8   3  14    1.49    1.00
   8  -3 -14    2.52    2.17
   8   3 -14    0.87    1.73
  -8  -3  14    1.00    0.77
  -8   3  14    0.85    0.71
  -8   3  13  293.96   19.38
   8  -3 -13  354.37   24.34
   8   3 -13  320.28   23.91
  -8   3  13  351.34   16.17
  -8   3  12  163.03   12.32
  -8   3  12  156.10   13.11
  -8   3  12  176.97    9.30
   8  -3 -12  182.53   16.00
   8   3 -12  189.08   16.65
  -8   3  11   19.67    3.53
   8  -3 -11   15.59    4.38
   8   3 -11   21.72    5.42
  -8   3  11   16.40    3.71
  -8   3  11   17.82    2.10
  -8   3  10   64.64    7.59
   8  -3 -10   55.14    8.24
   8   3 -10   67.79    9.24
   8  -3  -9   58.65    8.35
   8   3  -9   71.12    9.40
   8  -3  -9   65.25    3.94
   8   3  -9   72.66    4.20
   8  -3  -8    0.75    0.58
   8  -3  -8   -0.72    1.66
   8   3  -8   -0.78    1.28
   8  -3  -8    0.51    0.47
   8   3  -8    1.12    0.58
   8  -3  -7    4.74    0.86
   8   3  -7    4.09    0.87
   8  -3  -7    6.31    2.57
   8   3  -7    6.91    2.95
   8  -3  -7    6.11    1.19
   8  -3  -7    5.12    1.16
   8   3  -6   36.83    2.63
   8  -3  -6   37.14    2.54
   8  -3  -6   47.10    6.98
   8   3  -6   44.92    7.12
   8  -3  -6   34.03    2.92
   8  -3  -5  227.74   10.70
   8   3  -5  243.60   10.92
   8  -3  -5  261.14   18.20
   8   3  -5  258.29   18.76
   8  -3  -5  237.27   11.46
   8  -3  -5  230.77   11.48
   8  -3  -4  197.33    9.74
   8  -3  -4  199.21   15.53
   8   3  -4  209.19   16.50
   8  -3  -4  193.56    8.88
   8   3  -4  199.97    9.05
   8  -3  -4  172.14    9.37
   8  -3  -4  187.82    9.59
   8   3  -4  184.62    9.72
   8  -3  -3  274.01   12.80
   8  -3  -3  265.52   12.88
   8   3  -3  262.99   12.46
   8  -3  -3  267.77   11.97
   8   3  -3  281.48   12.17
   8  -3  -3  247.13   12.51
   8  -3  -3  282.66   19.27
   8   3  -3  292.22   20.21
   8  -3  -2   10.06    1.49
   8   3  -2   11.43    1.44
   8  -3  -2   19.01    2.06
   8  -3  -2    9.03    1.35
   8  -3  -2   11.04    3.55
   8   3  -2   16.51    4.33
   8   3  -1   61.08    4.22
   8  -3  -1   68.20    4.22
   8   3  -1   55.80    3.70
   8  -3  -1   65.15    4.36
   8  -3  -1   63.13    5.13
   8   3  -1   59.24    4.90
   8  -3  -1   51.02    3.69
   8  -3  -1   67.04    8.21
   8   3  -1   76.13    9.26
   8  -3   0   28.42    2.52
   8   3   0   28.42    2.65
   8   3   0   27.30    2.20
   8  -3   0   28.02    2.70
   8  -3   0   29.37    3.33
   8   3   0   22.98    2.95
   8   3   0   24.79    2.15
   8  -3   0   30.37    4.06
   8  -3   0   22.57    1.97
   8   3   0   28.69    2.25
   8   3   0   32.81    4.48
   8  -3   0   37.35    6.01
   8  -3   1  120.71    6.88
   8   3   1  116.68    7.59
   8  -3   1  134.18    8.03
   8  -3   1  117.69    6.47
   8   3   1  119.76    6.73
   8   3   1  110.32    5.97
   8   3   1  123.75    9.69
   8  -3   1  117.68    9.10
   8  -3   1  111.54    5.92
   8   3   1  120.94    6.16
   8   3   1  108.48    5.96
   8   3   1  106.33    6.85
   8  -3   2  215.92   11.12
   8   3   2  185.99   10.53
   8  -3   2  197.51    9.81
   8   3   2  183.24    9.46
   8  -3   2  177.62    9.09
   8   3   2  192.27    8.91
   8   3   2  198.26   12.92
   8  -3   2  172.48    8.60
   8  -3   2  179.42   12.04
   8   3   2  155.42    8.45
   8   3   2  181.49    8.71
   8   3   2  180.91    9.89
   8  -3   3  552.63   23.91
   8   3   3  496.52   23.41
   8  -3   3  471.16   21.53
   8   3   3  482.29   22.02
   8  -3   3  465.55   21.17
   8   3   3  517.22   21.53
   8  -3   3  462.90   25.15
   8   3   3  504.47   26.25
   8   3   3  486.40   22.73
   8   3   3  494.80   21.26
   8   3   4    7.83    1.67
   8  -3   4   10.66    1.77
   8  -3   4    7.12    1.81
   8   3   4    6.49    1.34
   8   3   4    7.44    1.90
   8  -3   4    3.95    1.60
   8   3   4    6.31    2.22
   8  -3   4    5.67    1.01
   8   3   4    6.90    1.19
   8   3   4    5.48    0.97
   8   3   5   68.53    4.68
   8   3   5   72.67    5.43
   8  -3   5   66.12    4.92
   8  -3   5   70.01    5.77
   8   3   5   68.74    5.68
   8   3   5   65.52    4.06
   8   3   5   72.95    4.40
   8  -3   5   65.27    4.09
   8   3   6  408.12   19.21
   8  -3   6  439.51   19.90
   8  -3   6  451.04   21.25
   8   3   6  414.69   20.87
   8   3   6  424.79   20.35
   8   3   6  406.81   18.49
   8  -3   6  403.85   18.56
   8   3   6  448.38   18.97
   8   3   7  100.13    6.29
   8  -3   7  107.05    5.93
   8   3   7  115.34    6.22
   8  -3   7  117.79    7.05
   8  -3   7  113.92    7.90
   8   3   7   98.76    7.53
   8   3   7  110.66    5.88
   8   3   7  113.55    7.42
   8   3   8    8.46    1.20
   8  -3   8    9.87    1.32
   8   3   8   11.03    1.53
   8  -3   8   10.71    2.23
   8   3   8    7.92    2.03
   8  -3   8    9.50    1.73
   8   3   8    7.55    1.38
   8  -3   9    3.81    1.50
   8   3   9    2.60    1.44
   8   3   9    2.19    0.67
   8  -3   9    1.85    1.01
   8  -3  10   24.56    3.19
   8   3  10   20.49    3.06
   8  -3  10   21.68    2.46
   8   3  10   19.49    1.81
   8   3  10   23.03    2.88
   8   3  11   28.12    3.09
   8  -3  11   28.97    3.35
   8   3  11   28.44    3.44
   8  -3  11   26.51    2.57
   8   3  12   64.04    4.59
   8  -3  12   57.70    4.79
   8   3  12   61.95    4.95
   8  -3  12   56.18    3.81
   8   3  13  275.74   13.42
   8  -3  13  280.02   13.87
   8   3  13  282.74   14.07
   8  -3  14   20.84    2.24
   8   3  14   18.48    2.21
   8  -3  15  153.16    7.62
   8   3  15  146.41    7.71
   8  -4 -22   16.34    1.14
   8   4 -22   16.71    1.15
  -8   4  21   36.48    2.88
  -8   4  20  411.81   18.71
  -8   4  19   62.31    4.41
  -8   4  18  114.45    6.84
  -8   4  17    0.68    0.76
  -8  -4  16   11.27    1.79
  -8   4  16   10.97    1.81
   8  -4 -15    9.65    3.25
   8   4 -15   13.13    3.82
  -8  -4  15   12.87    1.89
  -8   4  15   10.67    1.81
  -8   4  14    4.97    1.74
  -8  -4  14    5.88    1.29
  -8   4  14    4.14    1.27
   8  -4 -14    6.46    3.24
   8   4 -14    3.35    1.95
  -8   4  13  441.51   27.10
   8  -4 -13  493.68   29.95
   8   4 -13  472.79   30.33
  -8   4  13  488.70   21.59
  -8   4  13  425.83   24.63
  -8   4  12    1.89    1.27
  -8   4  12    3.67    1.42
  -8   4  12    4.02    1.09
   8  -4 -12    3.91    2.22
   8   4 -12    0.84    1.38
  -8   4  11   55.03    7.36
   8  -4 -11   49.54    7.70
   8   4 -11   65.66    9.13
  -8   4  11   58.06    4.21
  -8   4  11   54.23    5.83
  -8   4  10   41.77    3.34
   8  -4 -10   34.14    6.21
   8   4 -10   38.44    6.93
  -8   4  10   39.67    6.08
   8  -4  -9   25.42    2.06
   8   4  -9   28.06    2.27
   8  -4  -9   22.45    5.13
   8   4  -9   34.62    6.46
   8  -4  -8  105.61    5.55
   8   4  -8  109.13    5.76
   8  -4  -8  103.84    6.22
   8  -4  -8  105.41    6.08
   8  -4  -8  122.74   11.80
   8   4  -8  122.97   12.49
   8  -4  -7  102.52    5.66
   8   4  -7  121.30    6.01
   8  -4  -7  129.67   12.06
   8   4  -7  114.56   12.01
   8  -4  -7  114.27    6.38
   8  -4  -7  114.53    6.48
   8  -4  -6   79.38    4.77
   8  -4  -6   72.58    8.78
   8   4  -6   60.38    8.59
   8  -4  -6   73.25    4.79
   8  -4  -6   69.57    4.00
   8   4  -6   72.11    4.18
   8  -4  -6   72.09    4.67
   8  -4  -5    6.09    0.92
   8   4  -5    5.11    0.94
   8  -4  -5    6.39    1.24
   8  -4  -5    6.58    3.05
   8   4  -5    7.42    2.98
   8  -4  -5    8.35    1.37
   8  -4  -4  184.36    9.58
   8  -4  -4  184.56    9.63
   8   4  -4  193.00    9.49
   8  -4  -4  190.17    9.65
   8  -4  -4  178.83    8.73
   8   4  -4  200.79    9.04
   8  -4  -4  215.99   15.91
   8   4  -4  216.93   16.73
   8  -4  -3  776.27   32.43
   8  -4  -3  753.07   32.49
   8   4  -3  740.61   32.10
   8  -4  -3  707.89   32.24
   8  -4  -3  725.05   31.38
   8   4  -3  787.35   31.66
   8  -4  -3  832.67   40.65
   8   4  -3  836.03   41.87
   8  -4  -2   69.26    4.63
   8   4  -2   66.13    4.24
   8  -4  -2   61.46    4.29
   8   4  -2   74.25    4.73
   8  -4  -2   69.83    4.52
   8  -4  -2   70.73    8.51
   8   4  -2   69.62    8.97
   8  -4  -1   29.40    2.74
   8   4  -1   26.78    2.34
   8  -4  -1   27.20    2.46
   8   4  -1   25.38    2.58
   8  -4  -1   30.67    2.67
   8   4  -1   29.79    5.75
   8  -4  -1   35.74    5.87
   8   4   0    7.22    1.76
   8  -4   0    5.89    1.34
   8   4   0    6.86    1.28
   8  -4   0    6.09    1.63
   8   4   0    7.04    1.14
   8  -4   0    7.40    1.31
   8   4   0    8.31    1.17
   8  -4   0    6.63    1.95
   8   4   0   10.93    2.70
   8  -4   0    6.40    0.98
   8   4   0    4.95    0.96
   8  -4   1   93.29    5.69
   8  -4   1   88.85    6.30
   8   4   1   76.61    5.85
   8   4   1   79.16    4.77
   8   4   1   78.08    5.47
   8   4   1   83.57    4.81
   8  -4   1   87.42    5.19
   8   4   1   78.35    5.20
   8  -4   1   85.68    7.36
   8   4   1   89.75    8.00
   8  -4   1   82.04    4.59
   8   4   1   89.77    4.89
   8  -4   2   41.46    3.56
   8   4   2   42.32    4.02
   8  -4   2   43.65    4.20
   8   4   2   37.21    2.82
   8   4   2   39.36    2.90
   8   4   2   41.65    3.68
   8  -4   2   44.19    3.26
   8   4   2   42.68    3.37
   8  -4   2   39.43    2.77
   8   4   2   43.53    3.02
   8   4   2   46.59    5.54
   8  -4   2   40.07    4.91
   8   4   3  418.07   20.62
   8  -4   3  461.09   21.01
   8  -4   3  429.81   19.88
   8   4   3  402.79   18.73
   8   4   3  417.39   20.08
   8  -4   3  418.16   18.61
   8   4   3  445.30   18.96
   8  -4   3  415.66   22.59
   8   4   3  450.71   23.87
   8  -4   3  436.88   19.16
   8   4   3  421.22   19.41
   8  -4   4  327.97   15.79
   8   4   4  283.53   15.30
   8   4   4  278.14   13.41
   8  -4   4  281.88   13.31
   8  -4   4  281.11   17.12
   8   4   4  323.37   18.59
   8   4   4  313.05   13.73
   8   4   4  304.35   15.01
   8   4   4  294.98   14.09
   8  -4   5   26.55    2.90
   8  -4   5   27.56    3.42
   8   4   5   28.17    3.36
   8   4   5   26.69    2.31
   8   4   5   30.04    2.51
   8  -4   5   27.76    2.29
   8   4   5   28.39    3.20
   8   4   5   25.53    2.57
   8   4   6  102.00    5.98
   8   4   6  109.16    6.46
   8   4   6  114.85    7.52
   8   4   6  123.62    6.45
   8  -4   6  109.91    6.02
   8  -4   6  121.58    7.22
   8  -4   6  120.30    8.05
   8   4   6  120.19    7.93
   8   4   7   63.86    4.06
   8   4   7   57.46    4.20
   8   4   7   63.16    5.20
   8  -4   7   68.56    4.99
   8  -4   7   73.17    5.79
   8   4   7   75.75    5.86
   8  -4   7   64.80    4.02
   8   4   7   69.24    4.34
   8   4   8  237.72   12.47
   8  -4   8  213.53   10.55
   8   4   8  237.19   11.02
   8  -4   8  234.05   11.85
   8  -4   8  260.79   13.15
   8   4   8  207.95   12.52
   8   4   8  213.57   10.62
   8  -4   9   10.74    2.25
   8   4   9   11.87    2.33
   8   4   9    9.92    1.32
   8  -4   9   12.61    1.88
   8   4  10  108.12    5.86
   8  -4  10  106.90    6.60
   8  -4  10  129.15    7.83
   8   4  10  113.45    7.63
   8  -4  11  188.57    9.82
   8  -4  11  209.15   11.00
   8   4  11  187.28   10.89
   8   4  12   61.71    4.42
   8  -4  12   62.36    4.66
   8   4  12   56.63    4.64
   8  -4  12   48.94    3.57
   8   4  13  312.50   14.99
   8  -4  13  337.87   15.36
   8   4  13  308.98   15.39
   8  -4  14   32.77    2.77
   8   4  14   35.16    2.97
   8  -4  15   20.12    1.76
   8   4  15   19.02    1.86
  -8   5  22    3.23    0.70
   8  -5 -21   31.57    1.88
   8   5 -21   35.33    1.95
   8  -5 -21   35.55    2.55
   8   5 -21   30.71    1.90
   8  -5 -20    3.20    0.59
  -8   5  20    4.18    1.03
  -8   5  19    0.86    0.79
  -8   5  18   22.81    2.51
  -8   5  17    7.19    1.50
  -8   5  16   27.71    2.88
  -8   5  15  326.02   15.86
  -8   5  14  167.71    8.99
  -8   5  14  150.60   13.40
   8  -5 -14  138.57   13.69
   8   5 -14  143.89   14.14
  -8   5  13   47.03    3.86
  -8   5  13   43.14    6.54
   8  -5 -13   51.98    7.96
   8   5 -13   40.68    7.02
  -8   5  12  102.28    6.39
   8  -5 -12  105.68   11.34
   8   5 -12  101.54   11.61
  -8   5  12  100.11   10.56
  -8   5  11    2.57    0.93
   8  -5 -11    0.95    0.60
   8  -5 -11    1.48    1.71
   8   5 -11    1.63    1.88
  -8   5  11    4.18    1.97
   8   5 -10  368.86   25.11
   8  -5 -10  339.92   23.52
  -8   5  10  363.64   16.98
   8  -5 -10  349.64   15.89
   8   5 -10  379.21   16.24
  -8   5   9   18.53    2.14
   8  -5  -9   14.99    4.02
   8   5  -9   23.31    5.21
   8  -5  -9   17.63    2.12
   8  -5  -9   15.64    1.57
   8   5  -9   19.89    1.87
   8  -5  -8   47.15    7.10
   8   5  -8   44.86    7.40
   8  -5  -8   46.58    3.60
   8  -5  -8   46.31    2.97
   8   5  -8   48.80    3.20
   8  -5  -7  419.26   19.70
   8  -5  -7  410.78   18.49
   8   5  -7  461.07   18.86
   8  -5  -7  437.56   26.62
   8   5  -7  431.96   27.53
   8  -5  -7  423.28   19.47
   8  -5  -7  432.14   19.33
   8  -5  -6  614.21   26.54
   8  -5  -6  615.46   26.86
   8  -5  -6  565.96   25.55
   8   5  -6  626.67   25.90
   8  -5  -6  672.83   34.74
   8   5  -6  661.54   35.87
   8  -5  -6  617.99   26.68
   8  -5  -5  100.49    5.86
   8  -5  -5   94.91    5.92
   8  -5  -5   89.27    4.96
   8   5  -5  104.81    5.31
   8   5  -5  110.16    5.95
   8  -5  -5   95.02   10.09
   8   5  -5   87.96   10.36
   8  -5  -4  445.03   19.99
   8  -5  -4  445.90   20.00
   8  -5  -4  448.72   20.15
   8  -5  -4  409.49   18.86
   8   5  -4  467.98   19.25
   8   5  -4  445.43   19.83
   8  -5  -4  478.36   27.19
   8   5  -4  458.33   27.97
   8  -5  -3  991.01   41.13
   8  -5  -3  924.38   41.12
   8  -5  -3  980.85   41.21
   8   5  -3  954.04   40.86
   8  -5  -3  997.92   48.72
   8   5  -3 1008.15   50.34
   8  -5  -2  509.28   22.10
   8  -5  -2  464.54   21.96
   8  -5  -2  497.42   22.21
   8   5  -2  484.99   21.80
   8  -5  -2  550.52   29.57
   8   5  -2  545.03   30.84
   8  -5  -1    3.40    1.00
   8  -5  -1    2.02    1.11
   8   5  -1    4.02    1.61
   8  -5  -1    3.18    0.70
   8   5  -1    4.35    0.90
   8  -5  -1    3.43    0.99
   8   5  -1    5.41    1.06
   8  -5  -1    2.55    1.81
   8   5  -1    2.26    1.95
   8  -5  -1    4.69    1.06
   8  -5   0   35.25    3.29
   8  -5   0   39.28    2.72
   8   5   0   41.86    2.92
   8  -5   0   48.28    5.11
   8  -5   0   42.75    3.30
   8   5   0   42.14    3.03
   8  -5   0   41.91    3.69
   8   5   0   38.85    3.03
   8  -5   1   23.80    2.54
   8  -5   1   29.83    3.26
   8   5   1   21.91    2.79
   8  -5   1   24.32    1.96
   8   5   1   22.12    2.03
   8   5   1   18.89    3.62
   8  -5   1   25.40    3.65
   8   5   1   22.83    2.55
   8  -5   1   24.64    2.39
   8   5   1   23.15    2.11
   8  -5   1   20.76    2.56
   8   5   1   22.35    2.14
   8  -5   2    1.69    0.91
   8  -5   2    0.43    0.90
   8   5   2    1.05    0.87
   8   5   2    0.52    0.61
   8  -5   2    0.71    0.82
   8  -5   2    0.60    0.42
   8   5   2    0.31    0.51
   8   5   2    0.43    0.70
   8  -5   2   -0.18    0.76
   8   5   2    0.96    0.60
   8  -5   2    0.66    0.73
   8   5   3  127.05    8.15
   8  -5   3  139.73    7.87
   8  -5   3  127.33    8.20
   8   5   3  120.95    7.66
   8   5   3  136.51    6.92
   8  -5   3  124.85    6.52
   8  -5   3  124.26    9.51
   8   5   3  140.50   10.78
   8  -5   3  133.99    7.12
   8  -5   3  124.97    7.65
   8   5   3  124.95    7.17
   8   5   3  131.60    6.88
   8  -5   4   24.38    3.09
   8   5   4   31.30    3.37
   8   5   4   19.85    2.61
   8  -5   4   16.92    3.29
   8   5   4   21.22    3.84
   8  -5   4   22.41    1.97
   8   5   4   21.82    2.14
   8  -5   4   28.15    2.87
   8  -5   4   20.21    2.10
   8   5   4   24.32    2.19
   8  -5   5  262.53   13.33
   8   5   5  237.22   13.01
   8   5   5  232.57   12.65
   8   5   5  255.57   11.58
   8  -5   5  230.89   11.10
   8  -5   5  228.76   12.16
   8   5   5  236.59   11.37
   8  -5   6    6.65    1.08
   8   5   6    6.35    1.18
   8   5   6    6.86    1.64
   8   5   6    5.79    1.11
   8  -5   6    7.48    1.85
   8   5   6    7.30    1.92
   8  -5   6    8.32    1.69
   8  -5   7    0.57    0.56
   8   5   7    1.41    0.71
   8   5   7    0.66    0.53
   8  -5   7   -0.18    0.85
   8   5   7    2.61    1.32
   8  -5   7    0.23    1.05
   8   5   8    4.16    1.00
   8  -5   8    1.77    1.05
   8   5   8    2.60    1.45
   8   5   8    4.12    0.95
   8   5   8    3.42    1.34
   8   5   9  142.48    7.50
   8   5   9  150.10    8.92
   8  -5   9  150.53    8.42
   8  -5   9  151.73    9.10
   8   5   9  153.18    9.25
   8   5  10    0.77    0.99
   8  -5  10    1.52    0.84
   8  -5  10    0.61    1.08
   8   5  10   -0.44    1.04
   8   5  10    1.17    0.67
   8  -5  11   16.31    1.94
   8  -5  11   15.75    2.31
   8   5  11   16.03    2.37
   8  -5  12  236.29   11.70
   8  -5  12  273.27   12.75
   8   5  12  252.51   12.80
   8  -5  13  228.52    6.44
   8   5  13  222.14    6.78
   8   5  13  213.72    6.25
   8   5  14    8.41    1.34
   8  -5  14   10.92    1.35
  -8   6  22   62.67    3.56
   8   6 -21    1.21    0.29
  -8   6  21    1.85    0.68
   8  -6 -20    0.49    0.25
   8   6 -20    0.45    0.30
  -8   6  20    0.59    0.57
   8  -6 -20    0.90    0.57
   8   6 -20    0.50    0.35
  -8   6  19    2.46    0.94
   8  -6 -19    2.51    0.52
   8   6 -19    3.02    0.57
   8  -6 -18   84.14    4.44
  -8   6  18  103.07    5.90
  -8   6  17   86.38    5.66
  -8   6  16   72.17    5.09
  -8   6  15   64.22    4.76
  -8   6  14   12.18    3.44
  -8   6  14   13.21    1.97
  -8   6  14    5.96    2.21
  -8   6  13   44.77    3.75
  -8   6  13   38.87    6.55
   8  -6 -13   40.29    6.54
   8   6 -13   42.93    6.94
   8  -6 -13   39.66    2.74
  -8   6  12   95.00    5.91
  -8   6  12   83.59    9.91
   8  -6 -12   84.71    9.93
   8   6 -12  100.08   10.97
   8  -6 -12   81.52    4.64
   8   6 -12   86.45    4.86
  -8   6  11   52.51    4.11
  -8   6  11   46.84    7.54
   8  -6 -11   59.95    8.05
   8   6 -11   64.61    8.64
   8  -6 -11   45.33    3.11
   8   6 -11   60.15    3.54
  -8   6  10  239.97   11.98
   8  -6 -10  223.67   10.69
   8   6 -10  239.03   11.01
   8  -6 -10  244.89   11.79
   8  -6 -10  229.17   17.85
   8   6 -10  265.28   19.54
  -8   6   9  197.73   10.18
   8  -6  -9  184.26    8.94
   8   6  -9  204.00    9.29
   8  -6  -9  182.42    9.83
   8  -6  -9  215.59   16.33
   8   6  -9  195.82   16.58
   8  -6  -8    8.02    1.49
  -8   6   8    7.34    1.38
   8  -6  -8    9.13    1.63
   8  -6  -8   11.38    3.47
   8   6  -8    9.93    3.32
   8  -6  -8    7.06    0.98
   8   6  -8    8.46    1.19
   8  -6  -7  263.85   18.99
   8   6  -7  274.69   20.27
   8  -6  -7  267.80   12.17
   8   6  -7  287.91   12.50
   8  -6  -7  271.07   13.53
   8  -6  -7  267.35   13.18
   8  -6  -6  787.01   33.18
   8  -6  -6  771.83   40.52
   8   6  -6  775.60   41.94
   8  -6  -6  743.40   32.16
   8   6  -6  819.71   32.54
   8  -6  -6  760.28   33.63
   8  -6  -6  745.26   33.29
   8  -6  -5  190.46    9.70
   8   6  -5  201.26    9.76
   8  -6  -5  184.06    8.72
   8   6  -5  201.23    9.05
   8  -6  -5  175.18    9.88
   8  -6  -5  173.58   14.58
   8   6  -5  183.48   15.71
   8   6  -4  348.67   15.99
   8  -6  -4  339.45   16.04
   8  -6  -4  342.96   16.35
   8  -6  -4  349.56   22.22
   8   6  -4  356.50   23.52
   8  -6  -3  128.74    7.14
   8   6  -3  131.49    7.02
   8  -6  -3  125.28    7.10
   8  -6  -3  116.54    7.10
   8  -6  -3  130.24   11.71
   8   6  -3  113.72   11.89
   8   6  -2    1.80    0.85
   8  -6  -2    0.62    1.24
   8   6  -2    1.47    1.20
   8  -6  -2    0.75    0.63
   8  -6  -2    1.77    0.87
   8  -6  -2    2.71    0.96
   8  -6  -1    0.77    0.89
   8  -6  -1    1.57    0.87
   8   6  -1    1.78    0.72
   8  -6  -1    1.38    0.88
   8  -6  -1    0.98    0.93
   8   6  -1    1.20    1.03
   8  -6  -1    0.92    0.46
   8   6  -1    0.56    0.52
   8  -6  -1    1.89    0.79
   8  -6   0  279.61   13.73
   8  -6   0  298.23   13.59
   8   6   0  283.14   13.08
   8  -6   0  266.50   14.05
   8   6   0  285.65   13.24
   8  -6   0  259.92   15.70
   8   6   0  291.06   17.09
   8   6   0  282.03   12.80
   8  -6   0  268.46   12.46
   8  -6   1  193.34   10.45
   8  -6   1  207.93   10.94
   8  -6   1  207.11   10.19
   8   6   1  167.53   10.03
   8   6   1  205.74    9.91
   8   6   1  198.69    9.75
   8   6   1  216.28    9.68
   8  -6   1  189.81    9.22
   8  -6   1  196.64   12.46
   8   6   1  218.17   13.76
   8  -6   2  235.57   12.13
   8  -6   2  251.37   12.76
   8   6   2  217.83   12.32
   8  -6   2  243.86   12.47
   8  -6   2  241.66   11.64
   8   6   2  219.70   11.91
   8  -6   2  233.71   10.81
   8   6   2  247.65   11.21
   8  -6   2  216.87   13.92
   8   6   2  276.52   15.91
   8   6   2  237.81   11.32
   8   6   2  228.98   11.29
   8  -6   3   25.63    2.91
   8  -6   3   24.14    2.39
   8   6   3   20.24    3.73
   8  -6   3   21.13    3.38
   8  -6   3   26.15    2.06
   8   6   3   22.98    2.14
   8  -6   3   27.31    2.91
   8  -6   3   24.50    2.99
   8   6   3   25.73    3.02
   8   6   3   24.64    2.77
   8   6   3   25.20    2.30
   8  -6   4   49.77    4.22
   8  -6   4   50.46    3.64
   8  -6   4   55.42    4.40
   8  -6   4   52.00    4.55
   8   6   4   42.01    4.14
   8   6   4   58.15    3.69
   8  -6   4   47.99    3.21
   8   6   4   51.64    4.30
   8   6   4   58.17    3.74
   8  -6   5   34.65    3.35
   8  -6   5   35.23    3.59
   8   6   5   30.03    3.41
   8   6   5   35.00    2.75
   8  -6   5   33.80    2.49
   8   6   5   31.32    3.40
   8   6   5   35.23    2.79
   8  -6   6    1.07    0.99
   8   6   6    1.75    1.16
   8  -6   6    1.43    0.58
   8   6   6    2.03    0.78
   8   6   6    3.15    0.88
   8  -6   6    3.43    1.09
   8  -6   7   26.32    3.12
   8   6   7   20.21    2.81
   8  -6   7   29.58    3.02
   8  -6   7   22.48    2.51
   8  -6   7   25.34    2.07
   8   6   7   28.30    2.38
   8   6   7   24.89    2.29
   8   6   7   24.47    2.99
   8  -6   8   33.55    3.46
   8  -6   8   28.75    3.03
   8   6   8   29.83    3.45
   8   6   8   36.16    2.76
   8   6   8   33.55    3.49
   8  -6   9  105.08    6.38
   8  -6   9  105.24    6.77
   8   6   9   98.81    6.78
   8   6   9   98.78    5.59
   8   6   9   98.05    6.64
   8  -6  10   51.78    3.91
   8  -6  10   52.02    4.24
   8   6  10   60.31    4.59
   8   6  10   46.39    3.30
   8   6  10   53.38    4.32
   8  -6  11   27.10    2.70
   8  -6  11   21.87    2.25
   8   6  11   22.61    2.67
   8   6  11   20.40    2.50
   8   6  12   68.31    4.73
   8  -6  12   63.30    4.13
   8  -6  12   77.98    4.73
   8  -6  13    1.81    0.72
   8   6  13    1.07    0.73
   8  -6  13    0.36    0.37
   8   6  14    0.08    0.09
  -8   7  21  140.57    6.98
   8  -7 -20    8.67    1.13
  -8   7  20    7.16    1.20
  -8   7  19   28.94    2.16
   8  -7 -19   34.82    2.64
   8   7 -19   30.80    1.84
  -8   7  19   34.92    2.84
   8   7 -19   31.32    1.98
   8  -7 -18    4.23    0.63
   8   7 -18    8.02    0.85
  -8   7  18    9.10    1.55
   8  -7 -18    7.85    1.28
   8   7 -18    6.66    0.90
  -8   7  17  514.94   21.10
   8   7 -17  478.83   19.33
   8  -7 -16   69.96    3.86
   8   7 -16   74.05    4.00
   8  -7 -15   39.01    2.56
   8   7 -15   42.62    2.72
  -8   7  15   46.41    3.78
   8  -7 -14    6.36    0.93
   8   7 -14    8.26    1.10
  -8   7  14    8.12    1.59
  -8   7  13    4.01    1.65
  -8   7  13    8.49    2.96
  -8   7  13    4.27    1.23
   8  -7 -13    3.69    0.74
   8   7 -13    4.63    0.88
   8   7 -13    3.51    1.82
  -8   7  12    7.79    2.42
  -8   7  12   14.56    2.03
   8   7 -12   10.80    3.24
   8  -7 -12    8.45    1.08
   8   7 -12   10.21    1.25
  -8   7  12   10.29    3.32
  -8   7  11   80.52    5.59
   8  -7 -11   83.33    9.46
   8   7 -11   77.19    9.51
   8  -7 -11   80.70    4.45
   8   7 -11   90.85    4.77
  -8   7  11   88.09   10.52
   8  -7 -10  218.45   11.76
  -8   7  10  232.75   11.79
   8  -7 -10  228.01   11.39
   8  -7 -10  203.32   16.54
   8   7 -10  236.52   17.96
   8  -7 -10  215.68   10.25
   8   7 -10  245.69   10.64
   8  -7  -9  253.99   12.76
  -8   7   9  238.96   12.44
   8  -7  -9  250.36   12.30
   8  -7  -9  261.33   18.24
   8   7  -9  246.00   18.64
   8  -7  -9  233.34   11.07
   8   7  -9  266.56   11.46
   8  -7  -8    8.29    1.03
   8   7  -8   10.71    1.27
   8  -7  -8    8.25    1.53
  -8   7   8    9.21    1.57
   8   7  -8   15.07    3.90
   8  -7  -8    9.26    1.76
   8  -7  -8   12.00    3.36
   8   7  -8   10.45    1.57
   8   7  -7   15.98    1.94
   8  -7  -7   13.45    1.90
  -8   7   7   15.82    2.02
   8  -7  -7   14.26    2.06
   8  -7  -7   13.64    3.69
   8   7  -7   17.06    4.22
   8  -7  -7   12.28    1.26
   8   7  -7   13.95    1.46
   8  -7  -6  425.16   25.34
   8   7  -6  417.50   26.27
   8  -7  -6  396.42   17.88
   8   7  -6  453.69   18.29
   8  -7  -6  426.03   19.64
   8  -7  -6  405.15   19.13
   8  -7  -5   54.43    3.94
   8  -7  -5   62.75    7.65
   8   7  -5   51.49    7.41
   8   7  -5   60.90    3.49
   8  -7  -5   57.59    4.42
   8  -7  -5   51.29    4.03
   8   7  -4   24.59    2.43
   8  -7  -4   23.05    2.36
   8  -7  -4   21.30    2.51
   8  -7  -4   25.44    4.82
   8   7  -4   16.71    4.20
   8   7  -3    1.09    0.76
   8  -7  -3    4.13    2.36
   8   7  -3    1.40    1.14
   8  -7  -3    1.99    0.94
   8  -7  -3    1.30    0.80
   8  -7  -3    1.35    0.87
   8  -7  -2    1.80    0.96
   8  -7  -2    2.61    1.18
   8   7  -2    1.76    0.89
   8  -7  -2    0.60    0.81
   8  -7  -2    0.31    0.62
   8   7  -2    0.76    0.76
   8  -7  -2    0.29    0.40
   8   7  -2    0.71    0.45
   8  -7  -2    0.64    0.72
   8  -7  -1   62.88    5.77
   8   7  -1   65.92    6.42
   8   7  -1   57.80    3.65
   8  -7  -1   57.45    3.44
   8  -7  -1   61.17    4.87
   8  -7  -1   61.44    4.37
   8   7  -1   63.10    4.23
   8  -7  -1   59.99    4.42
   8  -7   0  393.63   18.24
   8   7   0  450.03   18.72
   8  -7   0  397.96   21.59
   8   7   0  432.00   23.00
   8  -7   0  433.75   20.34
   8  -7   0  430.09   19.50
   8   7   0  444.72   19.34
   8  -7   0  436.06   19.77
   8  -7   1  182.72    9.72
   8  -7   1  174.54   10.05
   8  -7   1  177.71    9.30
   8   7   1  190.35    8.72
   8   7   1  194.01   12.56
   8  -7   1  168.88   11.20
   8  -7   1  174.88    8.33
   8   7   1  156.00    9.09
   8   7   1  181.10    9.15
   8   7   2    7.64    1.46
   8  -7   2    8.79    1.70
   8  -7   2    4.88    1.57
   8   7   2    6.95    2.13
   8  -7   2    6.28    0.98
   8   7   2    7.93    1.14
   8  -7   2    9.11    1.88
   8  -7   2    5.53    1.26
   8  -7   3  105.31    7.07
   8  -7   3  111.74    6.41
   8  -7   3  102.69    6.83
   8  -7   3  126.68    7.40
   8   7   3   99.48    6.87
   8   7   3  107.82    6.82
   8   7   3  113.72    6.29
   8   7   3  121.02    6.12
   8  -7   3  110.81    5.71
   8  -7   4   10.20    1.94
   8   7   4    6.85    1.68
   8  -7   4    9.20    1.77
   8   7   4    9.32    1.69
   8  -7   4    8.79    1.11
   8   7   4    8.63    1.23
   8   7   4    9.61    1.43
   8  -7   4    7.44    1.65
   8  -7   4    5.80    1.19
   8  -7   5  420.18   19.79
   8   7   5  383.33   19.69
   8  -7   5  451.43   20.09
   8   7   5  406.61   19.79
   8   7   5  468.11   18.70
   8  -7   5  398.38   18.11
   8  -7   5  403.63   19.72
   8  -7   5  400.91   18.60
   8   7   5  439.27   18.91
   8  -7   6    4.57    0.83
   8   7   6    4.25    0.92
   8  -7   6    4.95    1.47
   8   7   6    5.15    1.49
   8   7   6    3.15    1.10
   8   7   6    3.88    1.06
   8  -7   6    6.18    1.47
   8   7   7  680.93   32.18
   8   7   7  726.31   32.41
   8  -7   7  662.77   31.58
   8   7   7  750.04   31.22
   8  -7   8    8.28    1.71
   8  -7   8    8.69    1.74
   8   7   8    5.32    1.48
   8   7   8    6.01    1.56
   8   7   8    8.55    1.32
   8   7   9  140.52    8.40
   8  -7   9  153.49    8.35
   8  -7   9  140.24    8.01
   8   7   9  134.56    8.25
   8   7   9  148.53    7.48
   8   7  10   55.63    4.36
   8  -7  10   62.03    4.20
   8  -7  10   61.39    4.31
   8   7  10   51.79    4.21
   8   7  10   54.16    3.57
   8  -7  11   56.20    3.93
   8   7  11   58.76    4.20
   8  -7  11   63.19    4.12
   8   7  11   59.95    4.38
   8  -7  12    3.94    0.86
   8  -7  12    3.58    0.89
   8   7  12    4.22    1.11
   8   7  13   17.74    1.81
   8  -7  13   11.71    1.24
  -8   8  21   14.69    1.38
  -8   8  20   12.05    1.41
   8  -8 -19   39.26    2.90
  -8   8  19   47.38    3.27
  -8   8  19   42.68    2.68
  -8   8  18  219.68   10.31
   8   8 -18  193.22    8.95
   8  -8 -18  204.80    9.91
   8  -8 -17    6.62    1.32
  -8   8  17    6.26    1.32
   8   8 -17    4.49    0.79
   8  -8 -16  712.00   11.93
   8   8 -16  693.79    7.15
   8   8 -16  706.90    8.81
   8  -8 -15   60.63    3.46
   8   8 -15   74.95    3.73
  -8   8  15   69.73    4.91
   8   8 -15   71.43    4.07
   8  -8 -15   68.22    4.76
   8  -8 -14   15.81    1.37
   8   8 -14   18.06    1.53
  -8   8  14   18.52    2.34
   8   8 -14   18.65    1.82
   8  -8 -14   18.04    2.26
   8  -8 -13    2.95    0.58
   8   8 -13    3.70    0.74
   8  -8 -13    4.68    1.30
   8   8 -13    2.45    0.84
  -8   8  13    3.04    1.12
  -8   8  12   41.50    5.36
  -8   8  12   50.26    7.61
  -8   8  12   40.63    3.64
   8   8 -12   44.16    3.16
   8   8 -12   41.91    2.68
   8  -8 -12   37.38    2.46
  -8   8  11   54.01    6.33
  -8   8  11   66.79    9.02
   8   8 -11   62.27    4.09
  -8   8  11   64.05    4.75
   8  -8 -11   56.49    3.35
   8   8 -11   68.73    3.68
   8  -8 -10  187.78    9.15
   8   8 -10  213.89    9.48
   8   8 -10  213.50   10.18
  -8   8  10  217.62   11.03
  -8   8  10  189.70   13.29
   8  -8 -10  210.11   10.49
   8  -8  -9   61.06    4.69
  -8   8   9   57.69    4.49
   8  -8  -9   60.75    4.33
   8   8  -9   67.86    4.28
   8  -8  -9   55.23    3.26
   8   8  -9   60.03    3.51
   8  -8  -8   37.45    3.61
  -8   8   8   50.86    3.90
   8  -8  -8   41.04    3.43
   8   8  -8   45.45    3.33
   8  -8  -8   38.54    2.48
   8   8  -8   40.62    2.68
   8  -8  -7    0.25    0.35
   8   8  -7    0.38    0.42
   8  -8  -7    0.91    0.78
  -8   8   7    0.83    0.70
   8   8  -7    0.66    0.74
   8   8  -7    2.55    1.47
   8  -8  -7    0.74    0.91
   8  -8  -6   84.59    5.40
   8  -8  -6   78.13    5.60
  -8   8   6   75.38    5.32
   8   8  -6   72.58    8.60
   8   8  -6   89.80    5.28
   8   8  -5    1.90    1.47
   8  -8  -5    3.48    1.29
   8  -8  -5    2.77    0.90
   8  -8  -5    5.86    1.32
   8  -8  -4   11.96    1.70
   8   8  -4   12.00    3.21
   8  -8  -4   12.89    1.98
   8  -8  -4   10.98    1.15
   8  -8  -4   11.40    2.23
   8  -8  -3    2.61    0.95
   8  -8  -3    2.28    1.09
   8  -8  -3    1.53    0.52
   8  -8  -3    1.57    0.86
   8  -8  -2  234.68   14.48
   8  -8  -2  250.39   11.84
   8  -8  -2  266.96   13.41
   8  -8  -2  300.19   13.48
   8   8  -2  294.95   13.25
   8  -8  -2  286.67   13.31
   8  -8  -1    5.42    1.59
   8  -8  -1    2.66    0.61
   8  -8  -1    4.85    1.44
   8   8  -1    1.90    0.86
   8  -8  -1    3.57    1.08
   8   8  -1    3.26    1.14
   8  -8  -1    2.84    1.05
   8  -8   0  425.97   19.94
   8  -8   0  498.41   22.42
   8  -8   0  478.57   21.40
   8   8   0  509.74   21.15
   8   8   0  490.14   21.26
   8  -8   0  488.05   21.64
   8  -8   1  127.65    7.48
   8  -8   1  123.03    7.85
   8  -8   1  134.18    7.30
   8  -8   1  127.74    6.15
   8   8   1  107.11    6.72
   8   8   1  130.27    7.09
   8  -8   2    0.88    0.98
   8   8   2    0.44    0.51
   8  -8   2    2.73    1.26
   8  -8   2    0.44    0.71
   8  -8   2    1.82    0.53
   8   8   2    1.63    0.60
   8   8   3   65.36    3.79
   8  -8   3   59.66    3.47
   8   8   3   56.49    4.31
   8  -8   3   62.88    4.93
   8  -8   3   60.79    4.23
   8  -8   3   56.21    4.55
   8   8   4   14.07    1.47
   8  -8   4   11.04    1.22
   8   8   4    8.75    1.67
   8  -8   4   14.07    2.15
   8  -8   4   13.92    1.72
   8  -8   4   14.61    2.17
   8  -8   5   34.98    2.44
   8   8   5   42.19    2.80
   8  -8   5   43.86    3.75
   8   8   5   33.32    3.31
   8   8   5   35.84    3.38
   8  -8   5   39.29    3.65
   8  -8   5   38.44    2.95
   8  -8   6  243.70   12.38
   8   8   6  213.53   12.01
   8   8   6  236.59   12.34
   8  -8   6  243.75   12.38
   8   8   6  255.97   11.69
   8   8   7   18.50    2.41
   8   8   7   25.16    2.73
   8  -8   7   18.41    2.34
   8   8   7   20.12    2.11
   8   8   8  208.60   11.45
   8   8   8  249.14   12.11
   8  -8   8  212.43   11.23
   8   8   8  251.68   11.18
   8   8   9    8.65    1.50
   8  -8   9    5.59    1.35
   8   8   9   10.70    1.73
   8   8   9    7.35    1.22
   8   8  10  221.69    6.93
   8   8  10  223.79    5.49
   8  -8  10  217.69    6.28
   8   8  11   12.49    1.75
   8  -8  11   15.54    1.75
   8   8  12  107.72    5.80
   8  -8  12   95.49    5.29
   8  -8  13    8.99    1.00
  -8   9  20    7.23    1.00
  -8   9  19   59.24    3.40
  -8   9  19   67.08    3.98
   8  -9 -18   22.75    2.02
  -8   9  18   25.01    2.25
   8  -9 -17  406.92   18.02
  -8   9  17  439.69   18.46
   8   9 -17  382.02   16.97
  -8   9  16    0.90    0.76
   8  -9 -16    0.94    0.71
   8   9 -16    0.28    0.49
  -8   9  15  121.50    6.98
   8  -9 -15  109.65    6.62
   8   9 -15  112.74    5.79
  -8   9  14    4.08    1.23
   8  -9 -14    3.18    1.01
   8   9 -14    3.13    0.76
   8   9 -13   92.56    5.11
  -8   9  13   88.06    5.95
   8  -9 -13   90.16    5.90
   8   9 -12  232.91   10.98
  -8   9  12  232.53   12.06
   8  -9 -12  229.15   11.98
  -8   9  11    1.47    0.85
   8   9 -11    1.55    0.78
  -8   9  11    3.46    2.00
   8  -9 -11    1.98    0.96
  -8   9  10  204.92   10.62
   8   9 -10  203.20    9.67
  -8   9  10  176.65   16.81
   8  -9 -10  196.58   10.02
  -8   9   9   12.02    1.93
   8  -9  -9   12.29    1.80
   8   9  -9   12.29    1.65
  -8   9   9    9.67    2.24
  -8   9   8   17.97    2.31
   8  -9  -8   17.72    2.12
   8  -9  -8   13.30    2.21
   8   9  -8   18.04    2.03
  -8   9   7   24.80    2.70
   8  -9  -7   21.64    2.43
   8  -9  -7   22.66    2.75
   8   9  -7   21.94    2.33
  -8   9   6   18.01    2.27
   8  -9  -6   15.38    2.13
   8  -9  -6   16.90    2.39
   8   9  -6   16.79    1.99
   8  -9  -5    2.70    1.15
  -8   9   5    3.54    1.15
   8   9  -5    1.78    0.96
   8  -9  -5    1.89    1.07
   8  -9  -4  134.34    8.06
   8   9  -4  141.46    7.66
   8  -9  -4  133.61    7.46
   8  -9  -3    4.00    1.31
   8  -9  -3    2.00    0.89
   8  -9  -2   11.80    1.78
   8   9  -2   13.07    1.74
   8  -9  -2    9.48    1.69
   8  -9  -1  191.32   10.00
   8   9  -1  191.10    9.84
   8  -9  -1  181.02    9.92
   8   9  -1  195.08    9.70
   8  -9   0  110.90    6.80
   8   9   0  113.89    6.61
   8   9   0  110.43    6.41
   8  -9   0  114.99    7.49
   8  -9   0  115.67    6.77
   8  -9   1  198.27   10.62
   8   9   1  209.17   10.20
   8  -9   1  205.84   11.33
   8  -9   1  193.76   10.34
   8  -9   2  488.15   22.20
   8  -9   2  477.37   22.74
   8  -9   2  466.28   21.64
   8   9   2  494.23   21.57
   8   9   3   79.55    5.38
   8  -9   3   96.19    6.14
   8  -9   3   96.64    6.49
   8  -9   3   87.00    5.52
   8   9   3  100.71    5.67
   8   9   4   89.44    5.95
   8  -9   4   98.81    6.62
   8  -9   4  100.80    5.83
   8   9   4  109.83    6.04
   8  -9   4   98.61    6.42
   8   9   5   99.24    6.40
   8  -9   5  108.74    6.95
   8  -9   5  107.35    5.98
   8  -9   5  116.99    6.92
   8   9   6  117.32    6.99
   8  -9   6  125.48    7.32
   8  -9   6  111.33    7.06
   8   9   7  247.08   12.29
   8  -9   7  268.37   12.52
   8  -9   8   40.64    3.31
   8   9   8   46.06    3.66
   8   9   9   81.84    5.34
   8   9   9   86.24    4.92
   8  -9  10    8.81    1.43
   8   9  10   11.66    1.38
   8   9  10    9.86    1.56
   8   9  11  123.31    6.72
   8  -9  11  126.40    6.52
   8   9  12   15.13    1.57
   8  -9  12   13.28    1.37
  -8  10  19    1.52    0.54
  -8  10  19    1.52    0.44
  -8  10  18   50.56    3.40
  -8  10  18   49.37    3.09
   8 -10 -17   24.03    2.08
  -8  10  17   24.45    2.22
  -8  10  16    0.96    0.73
   8 -10 -16   -0.12    0.61
   8  10 -16    0.68    0.40
  -8  10  15    0.90    0.76
   8 -10 -15    1.09    0.72
   8  10 -15    0.55    0.47
   8 -10 -14  111.85    6.76
  -8  10  14  129.29    7.15
   8  10 -14  114.89    5.92
  -8  10  13    0.85    0.98
   8 -10 -13    1.29    0.83
   8  10 -13    0.62    0.55
   8 -10 -12   38.40    3.53
  -8  10  12   43.82    3.75
   8  10 -12   42.71    2.98
  -8  10  11  225.43   11.68
   8 -10 -11  209.98   10.93
   8 -10 -11  230.82   11.76
   8  10 -11  223.91   10.57
   8  10 -10  402.05   17.93
  -8  10  10  405.31   19.07
   8 -10 -10  395.88   18.38
   8  10  -9  176.68    8.82
  -8  10   9  174.75    9.71
   8 -10  -9  170.53    9.19
   8  10  -8  221.64   10.54
  -8  10   8  217.24   11.41
   8 -10  -8  202.43   10.82
  -8  10   7   15.20    2.16
   8 -10  -7   12.23    1.88
   8 -10  -7   13.19    2.16
   8  10  -7   12.58    1.69
   8 -10  -6  216.49   11.50
   8  10  -6  238.11   11.28
   8 -10  -6  217.27   11.92
  -8  10   6  236.60   11.98
   8 -10  -5  119.72    7.29
   8  10  -5  131.85    7.14
   8 -10  -5  122.71    7.67
  -8  10   5  129.81    7.60
   8 -10  -4  293.60   14.85
  -8  10   4  312.66   15.13
   8  10  -4  321.90   14.73
   8 -10  -4  304.66   15.27
   8 -10  -3   32.98    2.93
   8  10  -3   34.76    2.92
   8  10  -3   40.22    3.26
   8 -10  -2  138.80    8.30
   8  10  -2  164.51    8.18
   8 -10  -2  154.51    9.22
   8 -10  -2  148.09    8.18
   8 -10  -1   20.90    2.42
   8 -10  -1   24.01    2.61
   8  10  -1   26.08    2.44
   8 -10   0   42.51    3.56
   8 -10   0   39.62    3.48
   8  10   0   41.27    3.28
   8 -10   1   92.36    5.91
   8 -10   1   85.36    6.32
   8 -10   1   84.89    5.64
   8  10   1  101.75    5.70
   8 -10   2   15.65    2.19
   8 -10   2   18.79    2.67
   8 -10   2   18.34    2.14
   8  10   2   16.75    2.00
   8 -10   3   68.34    4.99
   8  10   3   75.97    4.73
   8 -10   3   73.65    5.49
   8 -10   3   67.37    4.62
   8  10   4   20.13    2.15
   8  10   4   28.91    2.53
   8 -10   4   26.76    3.02
   8 -10   4   25.26    2.37
   8 -10   4   25.88    2.78
   8 -10   5   10.58    1.85
   8  10   5    8.52    1.44
   8 -10   5   11.14    1.95
   8 -10   5    7.95    1.25
   8  10   5    7.02    1.28
   8 -10   6    4.92    1.33
   8  10   6    3.72    1.00
   8  10   6    3.87    0.99
   8 -10   6    3.39    1.16
   8 -10   6    0.35    0.20
   8  10   7   42.41    3.38
   8 -10   7   48.94    3.77
   8  10   7   49.03    3.36
   8 -10   7   41.93    3.55
   8 -10   8  103.70    5.82
   8 -10   8   88.91    5.47
   8  10   8   86.37    5.41
   8  10   9   45.55    3.33
   8 -10  10    0.41    0.62
   8  10  10    0.73    0.64
   8 -10  11    5.36    0.95
   8  10  11    7.20    1.04
   8 -10  12    2.63    0.62
  -8  11  19    1.86    0.49
  -8  11  18    0.98    0.43
  -8  11  18    0.94    0.51
  -8  11  17   27.04    2.32
  -8  11  16    5.57    1.14
   8 -11 -16    3.58    0.88
   8  11 -15  395.04   17.42
  -8  11  15  446.84   18.87
   8 -11 -15  418.63   18.52
   8  11 -14   27.46    1.98
  -8  11  14   28.88    2.75
   8 -11 -14   25.83    2.55
   8  11 -13  216.76   10.15
  -8  11  13  229.65   11.45
   8 -11 -13  227.80   11.31
  -8  11  12    9.70    1.73
   8  11 -12    7.03    1.10
   8 -11 -12    7.38    1.51
   8 -11 -11  182.72   10.23
   8  11 -11  199.07    9.30
   8 -11 -11  192.98    9.74
  -8  11  11  197.31   10.44
   8 -11 -10   21.51    2.62
   8  11 -10   23.07    2.13
   8 -11 -10   27.38    2.53
  -8  11  10   23.02    2.64
   8  11  -9   26.13    2.28
   8 -11  -9   23.09    2.45
  -8  11   9   25.92    2.85
   8  11  -8   31.53    2.59
   8 -11  -8   29.90    2.85
  -8  11   8   27.03    3.00
   8  11  -7  173.24    8.64
   8 -11  -7  159.94    8.92
  -8  11   7  168.87    9.44
   8 -11  -6   20.85    2.62
   8  11  -6   19.06    2.13
   8 -11  -6   15.41    2.16
  -8  11   6   22.69    2.63
   8 -11  -5  380.82   18.32
  -8  11   5  372.25   18.14
   8  11  -5  381.97   17.46
   8 -11  -5  360.50   17.77
   8  11  -5  405.43   17.37
  -8  11   4    2.95    1.16
   8  11  -4    2.62    0.90
   8 -11  -4    2.90    1.15
   8  11  -4    3.23    1.07
   8  11  -3  614.38   25.73
   8  11  -3  604.84   25.97
   8 -11  -3  551.51   25.57
   8 -11  -2   44.34    4.10
   8  11  -2   42.33    3.22
   8  11  -2   40.65    3.34
   8 -11  -2   38.18    3.20
   8 -11  -1   93.98    6.55
   8 -11  -1   90.62    5.87
   8  11  -1  100.13    5.64
   8 -11  -1   87.90    5.63
   8 -11   0   22.77    2.55
   8  11   0   28.48    2.53
   8 -11   0   26.54    2.65
   8  11   1    4.57    1.07
   8 -11   1    2.83    0.98
   8 -11   1    4.76    1.26
   8 -11   2   50.31    4.57
   8 -11   2   52.82    4.01
   8  11   2   66.29    4.13
   8 -11   2   58.09    4.31
   8 -11   3   45.47    4.16
   8 -11   3   44.09    3.47
   8  11   3   53.90    3.66
   8 -11   3   49.71    3.90
   8 -11   4   11.14    1.95
   8 -11   4   11.04    1.53
   8  11   4   15.12    1.77
   8 -11   4   13.56    1.93
   8 -11   5  110.41    6.77
   8  11   5  120.95    6.19
   8 -11   5  111.75    6.53
   8 -11   6   14.20    1.88
   8 -11   6    0.47    0.22
   8  11   6    0.20    0.16
   8  11   6   14.55    1.60
   8 -11   6   12.75    1.79
   8  11   7    0.59    0.28
   8 -11   7    2.06    0.91
   8  11   7    2.67    0.81
   8 -11   7    3.45    1.11
   8  11   8    0.28    0.19
   8 -11   8    1.44    0.77
   8 -11   8    0.11    0.63
   8  11   8    0.89    0.64
   8  11   9   52.42    3.31
   8 -11   9   52.86    3.53
   8 -11  11   65.06    3.62
  -8  12  18   12.78    1.09
  -8  12  18   13.70    1.24
  -8  12  17    4.72    0.86
  -8  12  17    5.30    0.83
  -8  12  16    2.42    0.72
   8 -12 -15    0.10    0.51
  -8  12  15    0.46    0.61
  -8  12  14    0.39    0.60
   8  12 -14    0.74    0.39
   8 -12 -14    0.93    0.60
   8  12 -13  169.88    8.08
  -8  12  13  181.26    9.27
   8 -12 -13  185.60    9.16
   8  12 -12  110.21    5.64
  -8  12  12  118.58    6.75
   8 -12 -12  111.78    6.57
   8  12 -11  176.92    8.54
  -8  12  11  185.19    9.73
   8 -12 -11  182.22    9.60
  -8  12  10  135.76    7.62
   8 -12 -10  124.62    7.44
   8  12 -10  130.05    6.53
   8 -12 -10  121.36    6.88
   8 -12  -9    1.31    0.82
   8  12  -9    1.46    0.74
   8 -12  -9    2.88    1.06
  -8  12   9    2.75    1.07
  -8  12   8  352.65   16.56
   8  12  -8  342.54   15.44
   8 -12  -8  332.83   15.91
  -8  12   7   14.96    2.21
   8  12  -7   18.79    1.95
   8 -12  -7   18.23    2.17
   8  12  -7   20.95    1.93
  -8  12   6   98.70    6.45
   8  12  -6  101.97    5.75
   8 -12  -6   92.27    6.02
   8  12  -6  106.95    5.65
  -8  12   5   26.94    2.90
   8  12  -5   24.58    2.37
   8 -12  -5   26.97    2.71
   8  12  -5   27.49    2.34
  -8  12   4  171.39    9.42
   8  12  -4  173.01    8.79
   8  12  -4  179.29    8.63
   8 -12  -4  157.64    9.04
  -8  12   3  141.58    8.14
   8 -12  -3  131.79    7.88
   8  12  -3  152.88    7.54
   8  12  -2  193.27    9.05
   8 -12  -2  165.22    8.88
   8 -12  -1    7.99    1.76
   8 -12  -1    9.59    1.67
   8  12  -1   11.12    1.50
   8 -12  -1    8.28    1.39
   8 -12   0  108.68    7.08
   8 -12   0   99.41    6.25
   8  12   0  117.03    6.13
   8 -12   0  102.57    6.14
   8 -12   1  214.53   11.17
   8  12   1  247.04   11.09
   8 -12   1  216.14   11.14
   8  12   2    3.64    1.00
   8 -12   2    2.89    1.04
   8 -12   2    2.53    1.04
   8 -12   3  271.09   13.66
   8 -12   3  241.14   12.49
   8  12   3  286.75   12.69
   8 -12   3  277.57   13.04
   8 -12   4   92.88    6.11
   8 -12   4   85.56    5.20
   8  12   4   98.13    5.44
   8 -12   4   99.92    5.79
   8  12   5    1.84    0.76
   8 -12   5    2.71    1.03
   8 -12   5    2.29    0.69
   8 -12   5    0.27    0.74
   8 -12   6   49.99    3.87
   8  12   6   56.10    3.58
   8 -12   6   54.48    3.83
   8 -12   7   99.53    5.98
   8 -12   7  106.33    5.97
   8  12   7  114.40    5.80
   8 -12   8   20.02    1.92
   8  12   8   18.59    1.72
   8 -12   9   14.49    1.50
  -8  13  17  155.82    7.03
  -8  13  16   96.97    4.98
  -8  13  16  101.20    5.14
  -8  13  15    5.94    0.99
  -8  13  14    3.32    0.79
   8 -13 -14    3.40    0.81
  -8  13  13  102.13    5.53
   8 -13 -13  100.07    5.35
   8  13 -13   87.64    4.36
   8  13 -13   86.63    4.27
  -8  13  12  131.95    6.81
   8 -13 -12  122.10    6.57
   8  13 -12  118.69    5.63
   8  13 -12  108.97    5.45
  -8  13  11   10.05    1.56
   8 -13 -11    9.86    1.51
   8  13 -11    9.23    1.00
   8  13 -11   10.70    1.14
   8  13 -10    7.45    1.01
   8 -13 -10    7.72    1.26
   8  13 -10    6.97    0.93
   8 -13 -10    8.17    1.46
  -8  13  10    8.22    1.47
  -8  13   9   25.96    2.68
   8 -13  -9   29.15    2.49
   8  13  -9   23.36    1.90
   8  13  -9   28.16    2.14
  -8  13   8    1.28    0.80
   8  13  -8    1.67    0.57
   8 -13  -8    1.62    0.80
   8  13  -8    1.08    0.63
  -8  13   7    0.81    0.79
   8 -13  -7    0.65    0.68
   8  13  -7    0.65    0.44
   8  13  -7    0.68    0.65
  -8  13   6   11.43    1.80
   8 -13  -6   11.04    1.65
   8  13  -6   10.09    1.27
   8  13  -6   11.05    1.43
  -8  13   5  194.75   10.31
   8 -13  -5  193.99   10.00
   8  13  -5  196.43    9.31
  -8  13   4   15.84    2.10
   8 -13  -4   16.35    2.08
   8  13  -4   17.24    1.71
  -8  13   3    7.94    1.47
   8 -13  -3    6.07    1.38
   8  13  -3    9.62    1.30
   8  13  -2   15.60    1.68
  -8  13   2   14.51    1.94
   8  13  -1   20.67    1.93
   8 -13  -1   19.30    1.92
   8 -13  -1   17.73    2.14
   8  13   0   91.38    5.08
   8 -13   0   82.41    5.02
   8 -13   0   86.75    5.39
   8 -13   0   88.91    6.02
   8  13   1   19.75    1.93
   8 -13   1   20.54    2.06
   8 -13   1   17.44    2.42
   8 -13   1   15.50    1.98
   8  13   2  287.57   12.67
   8 -13   2  272.20   12.84
   8 -13   2  255.66   12.72
   8  13   3  140.01    6.83
   8 -13   3  139.61    7.12
   8  13   4  163.03    7.81
   8 -13   4  160.83    8.09
   8 -13   4  155.31    8.54
   8 -13   4  145.15    7.59
   8  13   5   10.43    1.29
   8 -13   5   11.49    1.50
   8 -13   5    7.66    1.43
   8 -13   5    6.89    0.99
   8  13   6  290.73   12.76
   8 -13   6  277.77   12.95
   8 -13   6  273.24   13.19
   8 -13   7  258.14   12.48
   8  13   7  292.54   12.43
   8 -13   8    9.55    1.20
   8 -13   9   11.34    1.17
  -8  14  15  173.67    8.03
  -8  14  14    7.00    1.03
  -8  14  13   13.81    1.51
  -8  14  12   74.62    4.50
  -8  14  11    1.06    0.69
   8  14 -10   46.60    2.62
  -8  14  10   56.69    3.75
   8  14  -9   71.48    3.73
  -8  14   9   77.17    4.81
   8 -14  -9   73.97    4.36
   8  14  -8    8.63    0.97
  -8  14   8   11.99    1.67
   8 -14  -8    8.75    1.34
  -8  14   7    0.99    0.67
   8  14  -7    0.63    0.39
   8 -14  -7    0.11    0.65
  -8  14   6    1.57    0.79
   8  14  -6    0.75    0.43
   8 -14  -6    1.79    0.82
  -8  14   5    1.14    0.81
   8  14  -5    1.38    0.54
   8 -14  -5   -0.12    0.76
   8  14  -4  119.75    6.01
  -8  14   4  120.34    6.87
   8 -14  -4  119.13    6.69
  -8  14   3    1.34    0.74
   8  14  -3    1.52    0.55
   8 -14  -3    1.15    0.85
   8  14  -2   49.56    3.08
  -8  14   2   43.63    3.43
   8  14  -1  462.96   20.00
   8 -14   0  182.16    9.14
   8 -14   0  191.50    9.69
   8  14   1    8.89    1.17
   8 -14   1    7.29    1.14
   8 -14   1    9.83    1.39
   8  14   2   58.49    3.46
   8 -14   2   56.81    3.56
   8 -14   2   51.30    3.56
   8 -14   2   57.89    4.25
   8  14   3  112.82    5.48
   8 -14   3  100.76    5.51
   8 -14   3   95.90    5.42
   8  14   4    9.83    1.15
   8 -14   4    8.68    1.19
   8 -14   4    6.25    1.41
   8 -14   4    7.33    1.01
   8  14   5   66.36    2.61
   8 -14   5   63.15    2.79
   8  14   6   60.70    3.27
   8 -14   6   50.50    3.27
   8 -14   7   30.25    2.13
   8 -14   8    2.40    0.55
  -8  15  14    2.09    0.40
  -8  15  13   12.25    1.20
  -8  15  12    0.08    0.37
  -8  15  11   43.14    2.92
  -8  15  10  222.18   10.50
  -8  15   9  119.86    6.58
   8 -15  -9  129.66    6.26
  -8  15   8   19.53    1.98
   8 -15  -8   19.73    1.80
  -8  15   7  255.42   11.13
   8 -15  -7  252.13   10.77
  -8  15   6   87.32    4.89
   8 -15  -6   85.25    4.63
   8  15  -5   91.02    4.66
  -8  15   5  104.66    5.67
   8 -15  -5  100.41    5.44
  -8  15   4    0.57    0.59
   8  15  -4    1.54    0.46
   8 -15  -4    0.53    0.63
   8  15  -3   70.70    3.77
  -8  15   3   68.65    4.37
   8 -15  -3   77.36    4.51
   8  15  -2   25.51    1.83
   8  15  -1  160.97    7.48
   8  15   0  220.04    9.97
   8 -15   0  226.96   10.57
   8  15   1   12.01    1.20
   8 -15   1   12.42    1.47
   8 -15   2    2.97    0.64
   8  15   2    2.63    0.56
   8 -15   2    3.13    0.81
   8  15   3   19.12    1.45
   8 -15   3   14.13    1.35
   8 -15   3   16.16    1.48
   8 -15   4   14.34    1.33
   8 -15   4   12.96    1.23
   8  15   5  110.98    5.01
   8 -15   5   96.17    5.01
   8 -15   6   30.95    1.96
  -8  16  11   23.59    1.71
  -8  16  10  148.59    7.04
  -8  16   9   96.89    5.04
  -8  16   8  133.96    6.92
   8 -16  -8  148.86    6.72
  -8  16   7  181.97    8.67
   8 -16  -7  183.83    8.48
  -8  16   6  153.12    7.55
   8 -16  -6  156.96    7.46
  -8  16   5   18.50    1.75
   8 -16  -5   21.87    1.83
  -8  16   4   11.92    1.36
   8 -16  -4   13.84    1.47
  -8  16   3   89.87    5.02
   8 -16  -3  108.77    5.35
   8 -16  -2   64.44    3.46
   8  16  -2   46.00    2.57
   8  16  -1    1.14    0.33
   8 -16   0  205.04    8.51
   8  16   0  165.21    7.71
   8 -16   1   40.92    2.54
   8  16   1   35.74    2.06
   8 -16   2   98.44    4.61
   8  16   2   84.71    4.15
   8 -16   3    1.30    0.43
   8 -17  -6   73.97    3.76
   8 -17  -5   54.71    3.04
   8 -17  -4   56.86    3.18
   8 -17  -3  107.16    5.29
   8 -17  -2  196.21    8.88
   8 -17   0   13.77    1.20
   8 -17   1    7.52    0.80
   9   0 -22    1.10    0.31
   9   0 -21    0.34    0.30
   9   0 -20  346.36   15.39
  -9   0  20  377.06   16.06
  -9   0  19    0.93    0.75
  -9   0  18   10.98    1.66
  -9   0  17    0.71    0.73
  -9   0  16   43.85    3.51
  -9   0  15    0.45    0.60
  -9   0  14   50.15    6.50
   9   0 -14   44.54    7.93
   9   0 -13    1.79    1.79
   9   0 -12    2.00    0.75
   9   0 -12    2.67    2.30
   9   0 -11    0.62    0.62
   9   0 -11    1.76    1.76
   9   0 -10  377.58   16.81
   9   0 -10  368.09   26.10
   9   0  -9    1.49    0.72
   9   0  -9    4.26    2.41
   9   0  -8 1941.73   79.94
   9   0  -8 2009.00   91.89
   9   0  -7    0.28    0.59
   9   0  -7    0.81    1.63
   9   0  -6  181.06    8.40
   9   0  -6  169.84   15.35
   9   0  -6  158.20    9.01
   9   0  -5   -0.79    1.83
   9   0  -5    0.36    0.50
   9   0  -5    0.90    0.76
   9   0  -4   79.10    4.39
   9   0  -4   75.39    9.61
   9   0  -4   71.39    4.99
   9   0  -3    0.63    0.49
   9   0  -3    0.78    1.80
   9   0  -3    0.92    0.82
   9   0  -2  676.96   27.51
   9   0  -2  707.59   37.14
   9   0  -1    0.42    0.68
   9   0  -1    0.49    0.53
   9   0  -1    0.80    0.90
   9   0  -1    0.79    1.82
   9   0  -1    1.68    0.53
   9   0   0  215.75   13.92
   9   0   0  214.19    9.77
   9   0   0  187.63    9.23
   9   0   0  214.18   11.90
   9   0   1    0.43    0.70
   9   0   1    0.20    0.50
   9   0   1    0.75    0.41
   9   0   1    0.76    1.28
   9   0   2   29.19    2.10
   9   0   2   26.21    2.32
   9   0   2   26.62    4.39
   9   0   2   29.45    2.94
   9   0   2   28.70    3.54
   9   0   3   -0.44    0.89
   9   0   3    0.11    0.52
   9   0   3    0.79    1.26
   9   0   3    0.17    0.89
   9   0   4   45.20    5.78
   9   0   4   57.20    3.72
   9   0   4   56.34    5.23
   9   0   4   54.58    4.32
   9   0   5    1.67    0.72
   9   0   5    1.36    1.30
   9   0   5    1.04    0.96
   9   0   6  117.23    6.52
   9   0   6  126.05    8.57
   9   0   6  128.09    7.39
   9   0   7    0.76    0.70
   9   0   7    0.97    0.87
   9   0   7    0.81    1.32
   9   0   8   72.10    4.42
   9   0   8   73.87    6.06
   9   0   8   74.36    4.97
   9   0   9    1.57    0.83
   9   0   9    0.48    1.19
   9   0  10   18.74    2.57
   9   0  10    0.11    0.42
   9   0  11    0.78    1.10
   9   0  12    2.62    1.08
   9   0  13   -0.26    0.80
   9   0  14   14.20    1.61
   9   1 -22    7.80    0.73
   9   1 -21   36.12    2.14
   9   1 -20   69.90    3.82
  -9   1  20   79.15    4.47
  -9  -1  19   75.17    4.59
  -9   1  19   75.69    4.69
  -9  -1  18    5.55    1.13
  -9   1  18    5.06    1.19
  -9  -1  17   25.30    2.49
  -9   1  17   25.10    2.54
  -9  -1  16  128.14    7.13
  -9   1  16  120.71    7.06
  -9   1  15  290.38   14.04
  -9   1  14   76.50    8.12
   9  -1 -14   92.49   11.20
  -9   1  13  458.84   26.77
   9  -1 -13  557.45   32.67
   9  -1 -12    1.76    1.76
   9   1 -12    1.06    0.71
   9  -1 -11  108.45   12.32
   9   1 -11  109.35    5.95
   9  -1 -10   10.30    3.72
   9   1 -10    6.09    1.10
   9  -1  -9  864.86   46.98
   9   1  -9  862.41   36.37
   9  -1  -8   36.10    6.97
   9   1  -8   50.39    3.31
   9  -1  -7   37.55    3.16
   9  -1  -7   32.04    6.22
   9   1  -7   32.03    2.52
   9  -1  -6   12.90    1.84
   9   1  -6   14.32    1.53
   9  -1  -6   11.03    3.89
   9  -1  -6   10.52    1.48
   9   1  -5   73.60    4.26
   9   1  -5   71.69    4.91
   9  -1  -5   75.43    4.98
   9  -1  -5   69.32    9.29
   9   1  -4  119.41    6.13
   9   1  -4  121.23    6.98
   9  -1  -4  110.18    6.81
   9   1  -3   15.62    2.03
   9   1  -3   12.05    1.45
   9  -1  -3   17.64    4.63
   9  -1  -3   12.29    1.82
   9   1  -2  362.81   16.28
   9  -1  -2  329.16   14.76
   9  -1  -2  369.96   16.32
   9   1  -2  320.83   15.03
   9  -1  -2  378.27   24.35
   9   1  -1   32.78    2.40
   9   1  -1   36.63    4.85
   9   1  -1   34.07    2.59
   9  -1  -1   34.53    3.16
   9   1  -1   30.41    2.34
   9  -1  -1   43.49    7.18
   9  -1   0    3.27    1.69
   9  -1   0    1.15    0.85
   9   1   0    0.43    1.00
   9   1   0    0.71    0.51
   9   1   0    1.07    0.47
   9   1   1   10.33    1.37
   9   1   1    7.01    2.24
   9  -1   1   12.99    2.38
   9   1   1   11.98    1.83
   9   1   1    7.60    1.07
   9  -1   2    8.28    1.99
   9   1   2    5.50    1.32
   9   1   2    2.67    1.47
   9   1   2    6.57    1.10
   9   1   2    5.20    0.88
   9   1   3  110.40    6.09
   9   1   3  127.03    7.38
   9  -1   3  140.75    8.82
   9  -1   3  131.06    7.58
   9   1   3  128.57    6.65
   9   1   3  124.85   10.15
   9   1   4   62.97    3.96
   9  -1   4   80.16    6.32
   9   1   4   83.93    5.34
   9  -1   4   74.28    5.26
   9   1   4   76.02    7.57
   9   1   4   74.37    4.50
   9   1   5   50.07    3.20
   9   1   5   55.82    3.67
   9  -1   5   57.08    5.25
   9   1   5   50.28    4.08
   9  -1   5   57.51    4.37
   9   1   6  191.85    9.24
   9   1   6  192.98    9.94
   9   1   6  169.46    8.57
   9  -1   6  198.78   11.48
   9  -1   6  195.41   10.13
   9   1   7  199.69   10.74
   9   1   7  210.99   10.24
   9  -1   7  230.20   12.58
   9  -1   7  214.18   11.04
   9   1   8  113.73    6.61
   9   1   8  106.74    6.11
   9  -1   8  123.31    8.14
   9  -1   8  121.16    6.89
   9   1   9   92.70    5.65
   9  -1   9  107.88    7.30
   9  -1   9  103.66    6.02
   9  -1  10  196.13    9.96
   9  -1  10  224.81   11.70
   9  -1  11    9.48    1.91
   9  -1  12   36.02    3.29
   9  -1  13  158.51    8.31
   9  -1  14    4.77    0.97
   9  -2 -22  180.51    8.11
   9   2 -22  199.48    8.16
   9  -2 -21   50.03    2.74
   9   2 -21   49.99    2.73
  -9   2  21   56.66    3.25
  -9   2  20    0.71    0.55
   9  -2 -20    1.04    0.46
   9   2 -20    1.21    0.48
   9  -2 -19   41.75    2.70
  -9   2  19   47.34    3.35
  -9   2  18   83.72    5.21
  -9   2  17   74.89    4.88
  -9  -2  17   71.51    4.67
  -9   2  16   10.92    1.64
  -9   2  15  327.03   15.51
  -9   2  14  106.26    6.34
   9  -2 -14  110.26   12.31
   9   2 -14   98.54   11.74
   9  -2 -13    8.65    3.33
   9   2 -13   10.71    3.87
  -9   2  13    7.55    2.20
   9  -2 -12    0.86    2.22
   9   2 -12    4.47    2.31
   9  -2 -12    2.92    0.85
   9   2 -12    4.04    0.92
  -9   2  12    1.38    0.93
   9   2 -11   51.00    8.22
   9  -2 -11   40.94    7.28
   9  -2 -11   45.91    3.19
   9   2 -11   47.92    3.30
   9  -2 -10   32.76    6.28
   9   2 -10   23.93    6.12
   9  -2 -10   34.67    2.61
   9   2 -10   34.74    2.69
   9  -2  -9   41.91    7.27
   9   2  -9   47.02    8.00
   9  -2  -9   45.77    3.08
   9   2  -9   44.56    3.15
   9  -2  -8   37.78    6.79
   9   2  -8   44.41    7.46
   9   2  -8   38.89    2.80
   9  -2  -8   35.15    2.63
   9  -2  -7   58.16    4.15
   9  -2  -7   61.35    8.67
   9   2  -7   43.46    7.63
   9  -2  -7   56.57    3.51
   9   2  -7   55.54    3.58
   9  -2  -6  440.49   19.87
   9  -2  -6  441.88   18.93
   9   2  -6  458.54   19.10
   9  -2  -6  439.26   27.87
   9   2  -6  456.66   28.87
   9  -2  -6  388.91   19.33
   9  -2  -5   25.86    2.63
   9  -2  -5   23.14    2.32
   9  -2  -5   23.86    2.05
   9   2  -5   32.80    2.35
   9  -2  -5   28.38    5.70
   9   2  -5   37.55    6.68
   9  -2  -4    4.63    0.88
   9   2  -4    4.70    0.95
   9   2  -4    4.35    0.98
   9  -2  -4    5.31    2.64
   9   2  -4    4.85    2.81
   9   2  -4    5.39    1.35
   9  -2  -4    6.96    1.46
   9   2  -3  258.26   13.07
   9  -2  -3  286.84   13.29
   9  -2  -3  272.23   20.05
   9   2  -3  312.73   21.57
   9   2  -3  253.88   12.31
   9  -2  -2   63.98    4.47
   9   2  -2   54.52    3.64
   9  -2  -2   59.99    8.55
   9   2  -2   64.98    9.01
   9   2  -1  211.16    9.92
   9  -2  -1  237.73   14.39
   9   2  -1  233.75   14.64
   9  -2  -1  203.86    9.93
   9   2  -1  219.49   10.15
   9  -2  -1  218.40   11.00
   9   2  -1  196.57    9.84
   9  -2  -1  210.19   17.20
   9   2  -1  196.72   17.10
   9  -2   0  206.06   10.51
   9  -2   0  201.96   13.33
   9  -2   0  191.97    9.38
   9   2   0  204.62    9.58
   9   2   0  217.07   14.03
   9   2   0  208.34   10.42
   9   2   0  192.29    9.28
   9   2   0  181.01    9.17
   9  -2   1  118.28    7.85
   9   2   1  110.30    7.65
   9  -2   1  113.38    6.82
   9  -2   1  105.17    5.80
   9   2   1  107.46    5.93
   9  -2   1  123.65    9.55
   9   2   1   99.46    9.02
   9   2   1  115.55    6.74
   9   2   1  101.63    5.62
   9  -2   2  236.61   12.73
   9   2   2  217.27   12.35
   9  -2   2  211.85   10.28
   9   2   2  217.80   10.44
   9  -2   2  228.19   14.45
   9   2   2  230.11   14.89
   9   2   2  224.82   11.29
   9   2   2  205.40   10.08
   9  -2   3    3.38    1.62
   9   2   3    5.64    1.85
   9   2   3    5.78    1.38
   9   2   3    3.69    1.60
   9  -2   3    0.85    1.10
   9  -2   3    1.74    0.68
   9   2   3    3.10    0.87
   9   2   3    1.44    0.61
   9  -2   4  119.37    7.38
   9  -2   4  128.83    8.52
   9   2   4  122.10    8.32
   9  -2   4  103.03    9.24
   9   2   4  120.53   10.12
   9  -2   4  121.15    6.47
   9   2   4  125.66    6.63
   9   2   4  138.02    7.46
   9   2   4  113.83    6.15
   9  -2   5  255.98   13.45
   9   2   5  224.05   12.99
   9  -2   5  245.65   12.12
   9  -2   5  218.84   10.86
   9   2   5  241.15   11.14
   9   2   5  236.64   11.76
   9   2   5  214.44   10.55
   9  -2   6    0.71    0.94
   9  -2   6    0.53    1.30
   9   2   6    2.64    1.64
   9   2   6    0.31    0.81
   9  -2   6    0.84    0.68
   9   2   6    1.61    0.83
   9   2   6    0.17    0.38
   9  -2   7   14.42    1.59
   9   2   7   10.22    1.24
   9   2   7    8.87    1.39
   9  -2   7   12.92    1.95
   9  -2   7   12.95    2.40
   9   2   7   13.51    2.50
   9   2   7   10.21    1.68
   9  -2   8  175.61    8.68
   9   2   8  184.95    8.86
   9  -2   8  201.06   11.07
   9   2   8  190.01   10.89
   9  -2   8  190.23    9.64
   9   2   8  161.41    8.21
   9   2   8  172.15    9.04
   9  -2   9  241.79   12.88
   9   2   9  222.53   12.70
   9  -2   9  232.39   11.53
   9  -2  10    9.75    2.03
   9   2  10   13.08    2.29
   9  -2  10   11.99    1.62
   9  -2  11   48.40    3.65
   9   2  11   49.83    3.79
   9   2  12   25.95    2.73
   9  -2  12   25.73    2.64
   9  -2  13    4.49    1.08
   9   2  13    3.79    1.10
   9   2  14    8.09    1.18
   9  -2  14    8.21    1.16
   9   3 -22   11.77    0.84
   9  -3 -21  527.98   23.21
   9   3 -21  580.22   23.28
  -9   3  21  598.92   23.94
   9  -3 -20  133.44    6.36
   9   3 -20  139.54    6.39
  -9   3  20  142.05    7.10
  -9   3  19    0.82    0.59
   9  -3 -19    0.64    0.46
   9   3 -19    1.09    0.48
  -9   3  18    1.18    0.77
   9  -3 -18    1.41    0.60
   9   3 -18    1.65    0.60
  -9   3  17   24.57    2.46
  -9   3  16   49.59    3.79
  -9   3  15  650.65   28.62
   9  -3 -14  119.57    6.19
  -9   3  14  112.99    6.76
   9  -3 -13   28.86    2.29
   9   3 -13   25.42    2.28
  -9   3  13   24.61    2.56
   9  -3 -13   26.83    5.82
   9   3 -13   22.79    5.27
   9  -3 -12  107.62    5.80
   9   3 -12  109.10    5.96
   9  -3 -12  102.96   11.85
   9   3 -12  123.66   13.20
   9  -3 -11   59.00    3.74
   9   3 -11   59.80    3.86
   9  -3 -11   65.04    9.49
   9   3 -11   61.60    9.19
   9  -3 -10    7.45    1.17
   9   3 -10    8.92    1.29
   9   3 -10   10.60    3.83
   9  -3  -9  191.55    9.61
   9   3  -9  222.22    9.97
   9  -3  -9  188.47   16.71
   9   3  -9  216.96   18.27
   9  -3  -8   60.03    4.22
   9  -3  -8   56.61    3.59
   9   3  -8   60.42    3.80
   9  -3  -8   64.37    8.69
   9   3  -8   72.78    9.78
   9  -3  -7  168.89    8.95
   9  -3  -7  167.31    8.17
   9   3  -7  183.82    8.45
   9  -3  -7  155.49    8.79
   9  -3  -7  169.38   15.04
   9   3  -7  161.58   15.36
   9  -3  -6   58.75    4.26
   9  -3  -6   55.61    3.53
   9   3  -6   64.11    3.79
   9  -3  -6   58.62    4.13
   9  -3  -6   60.04    8.43
   9   3  -6   59.04    8.70
   9  -3  -5   51.57    3.81
   9  -3  -5   40.96    3.40
   9  -3  -5   46.33    3.03
   9   3  -5   53.57    3.28
   9   3  -5   42.06    7.38
   9  -3  -5   44.39    7.21
   9  -3  -4   96.59    5.91
   9  -3  -4  110.17   11.41
   9   3  -4  105.21   11.65
   9   3  -4   96.14    5.51
   9   3  -4   91.86    5.12
   9  -3  -4   88.19    5.51
   9   3  -3   70.92    4.37
   9  -3  -3   86.96    9.95
   9   3  -3   83.99   10.21
   9  -3  -3   61.78    4.29
   9  -3  -3   71.62    4.85
   9   3  -2   10.00    1.39
   9  -3  -2   11.22    3.69
   9   3  -2    9.87    3.58
   9  -3  -2   10.80    1.75
   9   3  -1   50.36    4.04
   9   3  -1   53.57    3.52
   9  -3  -1   55.30    6.04
   9   3  -1   57.31    6.45
   9  -3  -1   51.71    3.42
   9   3  -1   57.96    3.66
   9   3  -1   54.77    3.58
   9  -3  -1   60.53    4.37
   9   3   0   27.51    2.78
   9   3   0   25.69    2.20
   9  -3   0   28.58    4.20
   9   3   0   30.86    4.60
   9  -3   0   26.00    2.20
   9   3   0   30.97    2.44
   9   3   0   25.41    2.18
   9  -3   0   28.93    2.91
   9   3   1   27.05    2.76
   9  -3   1   24.30    2.14
   9   3   1   28.97    2.40
   9  -3   1   26.38    4.09
   9   3   1   30.35    4.56
   9   3   1   24.98    2.12
   9   3   1   25.80    2.19
   9  -3   1   33.17    3.16
   9  -3   1   27.49    3.48
   9   3   1   25.47    3.35
   9   3   2  316.19   15.44
   9  -3   2  311.55   14.53
   9   3   2  348.99   14.89
   9  -3   2  308.13   18.56
   9   3   2  355.74   19.90
   9   3   2  314.71   14.50
   9  -3   2  321.55   15.75
   9  -3   2  351.82   17.09
   9   3   2  297.58   16.44
   9   3   3   58.82    4.43
   9   3   3   62.14    3.99
   9  -3   3   55.01    6.21
   9   3   3   74.41    7.35
   9  -3   3   62.01    3.85
   9   3   3   56.54    3.70
   9  -3   3   62.08    5.41
   9   3   3   62.05    5.30
   9   3   4   15.36    2.06
   9  -3   4   14.76    3.07
   9   3   4   11.89    2.97
   9  -3   4   18.80    1.83
   9   3   4   19.52    1.96
   9   3   4   13.40    1.55
   9  -3   4   17.89    2.38
   9  -3   4   15.37    2.69
   9   3   4   13.62    2.52
   9   3   5  504.58   22.98
   9  -3   5  560.70   24.58
   9  -3   5  591.10   26.02
   9   3   5  530.04   25.51
   9   3   5  523.25   23.95
   9  -3   5  526.58   23.20
   9   3   5  552.11   23.49
   9   3   5  546.61   24.98
   9   3   6  179.30   10.02
   9  -3   6  191.35    9.54
   9   3   6  210.96    9.88
   9  -3   6  214.22   10.85
   9  -3   6  221.44   12.02
   9   3   6  213.12   11.84
   9   3   6  188.37    9.38
   9   3   6  206.47   11.19
   9   3   7   19.37    2.14
   9  -3   7   17.57    2.32
   9  -3   7   21.73    3.06
   9   3   7   21.21    2.99
   9   3   7   19.84    2.64
   9  -3   7   17.90    1.81
   9   3   7   17.76    1.91
   9   3   7   19.11    1.75
   9  -3   8   87.09    4.84
   9   3   8   90.99    5.07
   9   3   8   78.49    4.58
   9  -3   8  107.50    6.93
   9   3   8   95.70    6.68
   9  -3   8   75.19    5.41
   9   3   9  104.11    5.65
   9  -3   9  130.85    7.88
   9   3   9  127.02    7.90
   9  -3   9  121.60    6.76
   9  -3  10    1.55    1.14
   9   3  10    1.43    1.08
   9  -3  10    1.45    0.75
   9   3  11  286.45   13.68
   9  -3  11  298.11   13.64
   9  -3  12   62.77    4.40
   9   3  12   65.55    4.55
   9  -3  13   18.22    1.89
   9   3  13   17.49    1.94
  -9   4  21    0.80    0.44
   9   4 -21    0.64    0.32
   9  -4 -21    0.90    0.29
   9   4 -21    1.17    0.33
   9  -4 -20    6.36    0.74
   9   4 -20    6.23    0.75
  -9   4  20    6.14    1.05
   9  -4 -19    6.97    0.89
   9   4 -19    7.56    0.91
  -9   4  19    7.62    1.23
  -9   4  18   11.85    1.57
   9  -4 -18    8.97    1.08
   9   4 -18    9.58    1.13
   9  -4 -17    2.27    0.72
   9   4 -17    2.50    0.72
  -9   4  17    3.17    0.92
   9  -4 -16   57.85    3.60
   9   4 -16   59.81    3.65
  -9   4  16   66.62    4.42
   9  -4 -15  111.33    5.77
   9   4 -15  116.62    5.92
  -9   4  15  100.80    6.38
   9  -4 -14  178.75    8.93
   9   4 -14  196.59    9.16
  -9   4  14  190.53    9.83
   9  -4 -13  260.30   12.22
   9   4 -13  287.14   12.50
   9  -4 -13  260.54   20.22
   9   4 -13  292.18   21.61
  -9   4  13  252.78   12.96
   9  -4 -12  138.64   14.12
   9   4 -12  153.95   15.06
   9  -4 -12  149.35    7.59
   9   4 -12  161.69    7.85
   9  -4 -11   99.49   11.14
   9   4 -11   95.10   11.41
   9  -4 -11   84.96    4.86
   9   4 -11   90.07    5.07
   9  -4 -10  239.56   18.86
   9   4 -10  255.51   20.02
   9  -4 -10  225.53   10.83
   9   4 -10  242.78   11.13
   9  -4  -9   95.63   10.91
   9   4  -9  104.24   11.83
   9  -4  -9   88.45    5.05
   9   4  -9  100.69    5.37
   9  -4  -8   38.11    3.18
   9  -4  -8   37.43    2.68
   9   4  -8   45.78    3.02
   9  -4  -8   41.93    6.95
   9   4  -8   38.19    7.04
   9  -4  -8   36.82    3.32
   9  -4  -7  183.89    9.65
   9  -4  -7  178.71    8.81
   9   4  -7  206.51    9.22
   9  -4  -7  193.01   16.07
   9   4  -7  192.45   16.76
   9  -4  -7  179.59    9.73
   9  -4  -6   30.80    2.89
   9  -4  -6   34.41    3.03
   9  -4  -6   31.70    2.36
   9   4  -6   34.08    2.55
   9  -4  -6   28.21    5.64
   9   4  -6   40.02    7.32
   9   4  -5  170.23    8.60
   9  -4  -5  167.17    8.80
   9  -4  -5  163.12    8.78
   9  -4  -5  156.72    8.64
   9  -4  -5  158.57    7.81
   9   4  -5  165.81    8.05
   9  -4  -5  131.72   13.47
   9   4  -5  200.74   16.60
   9  -4  -4  246.22   12.19
   9  -4  -4  260.07   12.23
   9  -4  -4  227.14   11.85
   9   4  -4  244.35   11.76
   9  -4  -4  245.46   18.53
   9   4  -4  243.31   19.36
   9  -4  -3  320.90   14.49
   9  -4  -3  310.27   14.29
   9  -4  -3  264.97   13.76
   9   4  -3  289.01   13.76
   9  -4  -3  327.28   21.69
   9   4  -3  307.27   22.15
   9  -4  -2   81.38    5.26
   9  -4  -2   74.72    4.96
   9  -4  -2   73.78    7.02
   9  -4  -2   67.22    4.55
   9  -4  -2   73.96    4.29
   9   4  -2   77.47    4.65
   9  -4  -2   67.97    8.87
   9   4  -2   80.26   10.10
   9   4  -1    5.03    1.01
   9  -4  -1    3.83    1.20
   9  -4  -1    1.17    1.02
   9   4  -1    4.91    1.86
   9  -4  -1    3.91    0.84
   9   4  -1    5.61    0.99
   9   4  -1    4.33    0.88
   9  -4  -1    7.60    1.39
   9   4   0  253.40   12.64
   9  -4   0  272.31   13.72
   9  -4   0  263.81   16.34
   9   4   0  312.22   17.84
   9  -4   0  269.65   12.54
   9   4   0  284.29   12.82
   9   4   0  283.36   13.56
   9  -4   0  289.62   13.41
   9   4   0  277.84   12.76
   9   4   1  143.43    7.60
   9   4   1  148.86    7.70
   9  -4   1  164.13    8.86
   9  -4   1  148.93    7.59
   9   4   1  164.27    7.91
   9   4   1  154.34   11.74
   9  -4   1  143.97   10.86
   9  -4   1  155.01    8.22
   9   4   1  158.87    8.54
   9   4   2  403.73   18.27
   9  -4   2  411.42   19.47
   9  -4   2  459.44   20.76
   9   4   2  386.30   20.07
   9  -4   2  402.41   18.16
   9   4   2  438.26   18.53
   9  -4   2  389.37   22.15
   9   4   2  439.31   23.59
   9   4   2  406.59   19.06
   9   4   3   84.37    4.89
   9  -4   3   88.09    5.93
   9  -4   3   88.02    6.55
   9   4   3   77.81    6.21
   9  -4   3   79.62    7.55
   9   4   3   87.61    8.40
   9  -4   3   81.06    4.80
   9   4   3   97.26    5.25
   9   4   3   82.12    5.46
   9   4   4   72.26    4.92
   9  -4   4   90.70    6.38
   9   4   4   69.64    5.76
   9   4   4   73.64    4.41
   9   4   4   74.58    5.50
   9   4   4   74.06    4.58
   9  -4   4   70.11    4.34
   9  -4   5  126.26    7.62
   9  -4   5  126.25    8.29
   9   4   5  122.57    8.25
   9   4   5  119.77    6.45
   9  -4   5  120.32    6.45
   9   4   5  131.37    7.95
   9   4   5  127.98    6.77
   9  -4   6   18.08    1.79
   9   4   6   18.82    1.96
   9   4   6   23.58    2.87
   9  -4   6   19.63    2.47
   9   4   6   15.65    2.64
   9  -4   6   22.69    2.99
   9   4   6   18.57    1.80
   9  -4   7   17.05    1.70
   9   4   7   15.39    1.76
   9   4   7   16.44    1.67
   9   4   7   18.78    2.57
   9  -4   7   17.17    2.30
   9  -4   7   16.61    2.63
   9   4   7   17.40    2.65
   9   4   8    1.71    1.12
   9   4   8    1.13    0.53
   9  -4   8    0.64    0.88
   9  -4   8    1.52    1.20
   9   4   8    0.67    1.13
   9   4   9   14.69    1.43
   9   4   9   14.04    2.32
   9  -4   9   12.94    2.15
   9  -4   9   15.14    1.94
   9  -4  10    2.64    1.38
   9   4  10    1.32    1.00
   9  -4  10    2.03    0.88
   9  -4  11  321.09   15.16
   9   4  11  337.39   16.29
   9  -4  12  234.33   11.09
   9   4  12  218.95   11.18
   9   4  13   19.91    1.94
  -9   5  21    6.23    0.85
   9   5 -21    6.14    0.56
   9  -5 -20    0.63    0.47
   9  -5 -20    0.60    0.30
   9   5 -20    0.45    0.30
   9   5 -20    0.09    0.32
  -9   5  20    0.81    0.52
   9  -5 -19   89.94    5.53
   9  -5 -19   97.38    4.82
   9   5 -19  107.08    4.91
  -9   5  19  117.50    5.88
   9  -5 -18   23.33    1.72
   9   5 -18   24.60    1.79
  -9   5  18   27.57    2.40
   9  -5 -17  198.27    9.40
   9   5 -17  219.12    9.56
  -9   5  17  208.38   10.44
   9  -5 -16    1.11    0.55
   9   5 -16    0.39    0.51
  -9   5  16    0.43    0.66
  -9   5  15   68.89    4.61
   9  -5 -15   60.65    3.70
   9   5 -15   67.36    3.90
  -9   5  14  201.40   10.35
   9  -5 -14  190.75    9.35
   9   5 -14  212.60    9.61
  -9   5  13   32.97    2.92
   9  -5 -13   29.96    2.32
   9   5 -13   29.91    2.39
   9  -5 -12   66.59    8.90
   9   5 -12   76.81    9.81
  -9   5  12   78.89    5.01
   9  -5 -12   70.07    4.18
   9   5 -12   76.84    4.44
   9  -5 -11  221.96   17.51
   9   5 -11  202.47   17.52
   9  -5 -11  195.90    9.72
   9   5 -11  227.00   10.12
  -9   5  10  209.37   16.94
   9  -5 -10  224.92   10.75
   9   5 -10  253.27   11.13
   9  -5 -10  218.41   17.85
   9   5 -10  243.46   19.30
   9  -5  -9   27.41    2.83
   9  -5  -9   25.00    2.08
   9   5  -9   30.27    2.36
   9  -5  -9   27.55    5.61
   9   5  -9   24.20    5.64
   9  -5  -8  532.46   23.53
   9   5  -8  581.05   23.89
   9  -5  -8  586.08   33.03
   9   5  -8  601.57   34.44
   9  -5  -8  542.50   24.83
   9  -5  -8  543.79   24.34
   9  -5  -7   19.69    2.26
   9  -5  -7   20.09    2.40
   9  -5  -7   23.55    1.92
   9   5  -7   25.30    2.11
   9   5  -7   25.39    2.52
   9  -5  -7   23.14    2.54
   9  -5  -7   26.92    5.46
   9   5  -7   19.83    5.04
   9  -5  -6  177.48    9.49
   9   5  -6  188.56    9.53
   9  -5  -6  183.28    8.63
   9   5  -6  193.43    8.91
   9  -5  -6  166.47    9.53
   9  -5  -6  173.60   15.29
   9   5  -6  193.03   16.67
   9  -5  -5  739.60   32.67
   9   5  -5  770.53   32.57
   9   5  -5  792.11   31.91
   9  -5  -5  696.84   32.66
   9  -5  -5  718.96   40.39
   9   5  -5  764.61   42.13
   9  -5  -4  382.78   17.11
   9  -5  -4  361.43   16.97
   9  -5  -4  341.44   16.82
   9   5  -4  357.00   16.66
   9  -5  -4  379.02   24.17
   9   5  -4  392.96   25.64
   9  -5  -3   34.75    3.17
   9  -5  -3   36.68    3.21
   9  -5  -3   32.28    2.96
   9   5  -3   37.57    3.01
   9   5  -3   31.13    6.36
   9  -5  -3   39.07    6.40
   9  -5  -2   36.06    3.24
   9  -5  -2   39.91    3.23
   9   5  -2   34.47    2.84
   9  -5  -2   25.87    3.98
   9   5  -2   38.77    5.16
   9  -5  -2   29.75    2.37
   9   5  -2   31.91    2.57
   9  -5  -1   25.80    2.74
   9  -5  -1   28.35    2.68
   9   5  -1   23.76    2.24
   9   5  -1   24.62    2.34
   9  -5  -1   26.81    3.95
   9   5  -1   27.62    4.33
   9  -5  -1   23.45    2.02
   9   5  -1   24.53    2.22
   9  -5   0   10.61    1.86
   9   5   0    6.63    1.17
   9  -5   0    9.78    1.60
   9   5   0    8.92    1.34
   9  -5   0    8.05    1.15
   9   5   0    9.31    1.32
   9  -5   0    6.44    1.98
   9   5   0    6.29    2.10
   9  -5   1   10.54    1.88
   9  -5   1   11.45    1.66
   9   5   1    9.01    1.31
   9   5   1   12.62    1.52
   9  -5   1    8.66    1.21
   9   5   1    9.30    1.36
   9  -5   1    8.76    2.28
   9   5   1   10.91    2.80
   9   5   2    3.40    0.89
   9  -5   2    2.95    0.92
   9  -5   2    2.55    1.24
   9  -5   2    7.78    1.11
   9  -5   2    5.78    1.84
   9   5   2    3.23    1.52
   9   5   2    3.32    0.90
   9  -5   3  104.91    9.06
   9   5   3  123.56   10.26
   9  -5   3  123.15    6.48
   9   5   3  131.70    6.84
   9   5   3  122.45    6.65
   9  -5   3  134.31    7.79
   9  -5   3  137.72    8.43
   9   5   3  126.20    8.17
   9  -5   4    4.25    0.88
   9   5   4    5.71    1.07
   9   5   4    5.63    1.50
   9  -5   4    5.93    1.76
   9   5   4    4.10    1.55
   9   5   4    5.28    1.02
   9  -5   5    5.12    0.96
   9   5   5    4.08    0.98
   9   5   5    5.33    1.47
   9  -5   5    5.86    1.76
   9   5   5    4.54    1.63
   9   5   5    5.16    1.02
   9  -5   6    3.36    0.75
   9   5   6    2.43    0.78
   9   5   6    2.75    1.16
   9   5   6    3.97    0.87
   9  -5   6    3.55    1.29
   9  -5   6    2.63    1.27
   9   5   6    4.02    1.55
   9   5   7  336.00   16.47
   9   5   7  318.76   14.96
   9  -5   7  340.46   16.16
   9  -5   7  365.24   17.04
   9   5   7  327.12   16.79
   9  -5   7  318.44   14.82
   9   5   7  363.06   15.31
   9   5   8   45.04    3.05
   9   5   8   45.32    3.95
   9  -5   8   44.01    3.67
   9  -5   8   49.26    4.23
   9   5   8   48.70    4.30
   9   5   9    7.73    1.06
   9   5   9    7.51    1.56
   9  -5   9    8.56    1.46
   9  -5   9    8.13    1.73
   9   5   9   10.24    1.83
   9  -5  10  136.52    7.64
   9   5  10  133.83    7.76
   9  -5  10  128.20    7.02
   9  -5  11  118.24    6.42
   9   5  11  113.06    6.55
   9  -5  11  103.49    5.73
   9   5  12   80.78    3.63
   9  -5  12    0.24    0.14
   9   6 -20   79.84    3.84
   9   6 -20   86.52    4.03
   9  -6 -19   13.64    1.44
  -9   6  19   12.43    1.39
   9   6 -19   12.31    0.87
   9   6 -19   12.13    1.04
   9  -6 -18   68.95    4.46
  -9   6  18   77.54    4.58
   9  -6 -18   63.53    3.52
   9   6 -18   77.96    3.70
   9   6 -18   75.73    3.93
   9  -6 -17   37.59    2.37
   9   6 -17   42.34    2.50
  -9   6  17   42.87    3.25
   9  -6 -16   94.67    4.91
   9   6 -16  100.47    5.05
  -9   6  16  104.66    6.01
   9  -6 -15   25.45    1.94
   9   6 -15   29.06    2.12
  -9   6  15   26.83    2.64
   9  -6 -14   22.72    1.85
   9   6 -14   25.30    1.99
  -9   6  14   22.28    2.40
   9  -6 -13   90.61    4.94
   9   6 -13  103.73    5.23
  -9   6  13   90.62    5.79
   9  -6 -12  151.56    8.48
  -9   6  12  153.41    8.18
   9   6 -12  150.76    7.35
   9  -6 -12  139.87    7.09
   9  -6 -11  457.47   20.86
  -9   6  11  451.74   20.38
   9  -6 -11  420.27   19.24
   9   6 -11  488.12   19.65
  -9   6  11  395.35   26.67
   9  -6 -11  466.57   27.95
   9   6 -11  420.44   28.00
   9  -6 -10   34.24    2.46
   9   6 -10   39.02    2.72
  -9   6  10   28.89    5.59
   9  -6 -10   37.60    3.42
   9  -6 -10   41.03    6.44
   9   6 -10   33.03    6.13
   9  -6  -9    3.58    0.75
   9   6  -9    3.70    0.88
   9  -6  -9    4.22    2.16
   9   6  -9    4.75    2.25
   9  -6  -9    4.39    1.31
   9  -6  -8  207.85   11.06
   9  -6  -8  205.88    9.70
   9   6  -8  222.16   10.03
   9  -6  -8  207.68   10.86
   9  -6  -8  214.82   16.76
   9   6  -8  214.30   17.65
   9  -6  -7  395.99   18.81
   9  -6  -7  387.61   17.34
   9   6  -7  422.48   17.70
   9  -6  -7  395.70   18.60
   9  -6  -7  410.16   18.34
   9  -6  -7  402.16   25.50
   9   6  -7  372.77   25.93
   9   6  -6   16.55    2.08
   9  -6  -6   18.23    2.29
   9  -6  -6   20.05    2.20
   9  -6  -6   18.85    2.34
   9   6  -6   19.44    1.77
   9  -6  -6   12.34    3.70
   9   6  -6   14.97    4.33
   9  -6  -5   83.32    5.52
   9  -6  -5   85.75    5.37
   9   6  -5   81.70    5.23
   9  -6  -5   78.27    9.42
   9   6  -5   72.57    9.60
   9  -6  -4   24.99    2.63
   9  -6  -4   26.27    2.69
   9  -6  -4   27.42    2.68
   9   6  -4   31.15    2.76
   9  -6  -4   23.23    5.10
   9   6  -4   23.02    5.53
   9  -6  -3   57.16    4.20
   9  -6  -3   48.99    5.45
   9   6  -3   53.87    6.11
   9  -6  -3   54.62    4.07
   9  -6  -3   49.44    3.26
   9   6  -3   57.79    3.59
   9  -6  -3   55.47    4.16
   9   6  -3   55.22    3.91
   9  -6  -3   48.93    7.30
   9  -6  -2  202.87   10.40
   9  -6  -2  179.99   12.32
   9   6  -2  199.79   13.50
   9  -6  -2  185.61    9.11
   9   6  -2  202.56    9.49
   9  -6  -2  198.49   10.20
   9   6  -2  195.83    9.73
   9   6  -2  196.21    9.88
   9  -6  -1  245.63   12.05
   9   6  -1  237.49   15.21
   9  -6  -1  214.49   10.59
   9   6  -1  249.80   11.08
   9  -6  -1  221.85   14.11
   9  -6  -1  231.32   11.66
   9   6  -1  230.12   11.21
   9   6  -1  235.96   11.38
   9  -6   0    1.22    0.97
   9  -6   0    1.80    1.18
   9   6   0    1.31    1.24
   9  -6   0    1.11    0.57
   9   6   0    0.83    0.56
   9   6   0    1.05    0.65
   9  -6   0    1.34    0.88
   9   6   0    1.73    0.81
   9  -6   1   13.39    2.11
   9  -6   1   15.64    1.58
   9   6   1   14.48    1.66
   9  -6   1   17.03    3.00
   9   6   1   15.50    3.22
   9  -6   1   22.06    2.31
   9   6   1   17.81    1.92
   9   6   1   16.32    1.84
   9  -6   2   16.93    2.23
   9  -6   2   10.23    2.39
   9   6   2   12.12    2.88
   9  -6   2   10.95    1.31
   9   6   2   11.01    1.44
   9  -6   2   10.71    1.59
   9   6   2   12.08    1.57
   9  -6   3    0.92    0.95
   9  -6   3    0.36    0.42
   9   6   3    1.32    0.68
   9   6   3   -0.11    0.57
   9  -6   3    1.12    0.72
   9  -6   4  370.80   17.20
   9   6   4  334.54   17.29
   9  -6   4  346.21   15.58
   9   6   4  378.04   16.05
   9   6   4  347.84   15.96
   9   6   4  334.10   16.90
   9   6   5    9.25    1.81
   9  -6   5   12.52    1.37
   9   6   5   15.06    1.65
   9   6   5   14.81    1.65
   9  -6   5   12.01    2.12
   9   6   5    9.17    1.93
   9  -6   6   13.54    2.13
   9   6   6   10.98    2.11
   9  -6   6   11.43    1.29
   9   6   6   10.59    1.41
   9   6   6   13.62    2.06
   9   6   6    8.89    1.31
   9  -6   7   78.51    5.32
   9  -6   7   87.94    5.83
   9   6   7   72.26    5.54
   9   6   7   81.11    4.63
   9   6   7   74.12    5.39
   9  -6   8  128.65    7.38
   9  -6   8  147.72    7.97
   9   6   8  119.03    7.67
   9   6   8  127.11    6.61
   9   6   8  134.30    7.75
   9  -6   9   42.03    3.34
   9  -6   9   44.43    3.61
   9   6   9   42.17    3.65
   9   6   9   44.77    2.89
   9   6   9   43.26    3.60
   9   6  10  205.06   10.55
   9  -6  10  209.50   10.09
   9  -6  11    8.09    1.14
   9  -6  12    0.38    0.29
  -9   7  20    5.43    0.83
   9  -7 -19  176.44    8.36
  -9   7  19  190.63    8.44
   9   7 -19  161.72    7.55
   9  -7 -18   10.90    1.41
   9   7 -18    8.05    0.77
  -9   7  18    8.57    1.27
   9   7 -18    9.54    1.01
   9  -7 -17   28.06    2.25
   9   7 -17   28.17    1.72
  -9   7  17   34.29    2.45
   9   7 -17   28.44    1.39
   9   7 -16  106.82    5.27
  -9   7  16  104.47    5.91
   9  -7 -16   89.89    4.64
   9   7 -16   98.48    4.80
   9   7 -15   31.06    2.39
  -9   7  15   28.20    2.68
   9  -7 -15   27.47    1.89
   9   7 -15   29.84    2.03
  -9   7  14    8.20    1.46
   9  -7 -14    5.47    0.81
   9   7 -14    7.34    0.97
   9   7 -14    7.28    1.23
   9  -7 -13  136.93    7.97
  -9   7  13  144.93    7.83
   9  -7 -13  128.49    6.56
   9   7 -13  147.15    6.84
   9   7 -13  146.31    7.37
   9  -7 -12  126.66    7.47
  -9   7  12  121.30    7.08
   9  -7 -12  116.94    5.98
   9   7 -12  129.86    6.27
   9   7 -12  129.16    6.81
   9  -7 -11  214.29   11.22
   9   7 -11  234.90   10.69
  -9   7  11  214.56   10.82
   9  -7 -11  194.42    9.58
   9   7 -11  222.28    9.92
   9   7 -10  193.74    9.33
   9  -7 -10  165.72    8.24
   9   7 -10  189.20    8.58
  -9   7  10  168.55   15.30
   9  -7 -10  185.26    9.92
   9   7 -10  165.23   14.70
   9   7  -9   26.51    2.55
   9  -7  -9   26.58    2.70
   9  -7  -9   24.75    1.89
   9   7  -9   25.40    2.07
   9  -7  -9   23.18    2.72
   9  -7  -8   47.32    3.76
   9  -7  -8   45.51    2.81
   9   7  -8   49.06    3.06
   9   7  -8   43.03    6.73
   9  -7  -8   40.74    3.75
   9  -7  -7   52.12    4.12
   9   7  -7   61.39    3.54
   9  -7  -7   56.45    4.45
   9  -7  -7   50.17    7.10
   9   7  -7   47.43    7.31
   9  -7  -6  146.77    8.13
   9  -7  -6  124.73   11.95
   9   7  -6  123.90   12.72
   9  -7  -6  131.36    7.44
   9  -7  -6  139.80    7.83
   9  -7  -5   55.80    4.29
   9  -7  -5   51.64    3.92
   9   7  -5   57.90    4.09
   9  -7  -5   48.16    7.21
   9   7  -5   52.48    7.89
   9  -7  -4   29.48    2.88
   9  -7  -4   24.38    3.60
   9   7  -4   27.30    4.14
   9  -7  -4   25.37    2.03
   9   7  -4   29.77    2.29
   9  -7  -4   28.36    2.86
   9  -7  -4   28.03    2.72
   9   7  -4   29.01    2.74
   9  -7  -4   22.97    4.79
   9  -7  -3   32.64    3.05
   9  -7  -3   27.12    3.89
   9   7  -3   36.40    4.75
   9  -7  -3   30.89    2.31
   9   7  -3   37.51    2.62
   9  -7  -3   32.54    3.04
   9  -7  -3   35.28    3.17
   9   7  -3   35.75    3.04
   9  -7  -2   81.17    5.28
   9  -7  -2   64.50    6.27
   9  -7  -2   69.59    4.09
   9   7  -2   73.57    4.36
   9   7  -2   76.41    7.36
   9  -7  -2   80.56    5.22
   9   7  -2   81.00    4.99
   9  -7  -1  665.48   29.11
   9  -7  -1  604.00   27.52
   9   7  -1  695.17   28.01
   9  -7  -1  571.91   30.91
   9   7  -1  684.30   32.85
   9  -7  -1  701.22   29.01
   9   7  -1  660.28   28.38
   9   7  -1  671.51   28.56
   9  -7   0  188.03    9.95
   9  -7   0  167.97    8.50
   9   7   0  188.89    8.90
   9  -7   0  158.71   11.27
   9  -7   0  189.61    9.65
   9   7   0  196.01    9.31
   9   7   0  183.20    9.30
   9  -7   1  291.77   14.57
   9  -7   1  254.85   16.08
   9  -7   1  284.43   13.13
   9   7   1  315.62   13.57
   9  -7   1  304.62   14.19
   9   7   1  298.29   13.82
   9  -7   2   42.47    3.74
   9   7   2   43.11    3.18
   9   7   2   41.83    2.95
   9  -7   2   36.75    2.62
   9  -7   2   38.78    3.21
   9  -7   3  231.11   11.54
   9   7   3  227.80   10.58
   9   7   3  230.96   10.34
   9  -7   3  206.94    9.88
   9  -7   4    4.65    1.43
   9  -7   4    4.02    0.79
   9   7   4    5.54    0.99
   9   7   4    5.18    1.07
   9  -7   4    3.68    0.90
   9  -7   5  105.47    5.55
   9   7   5  122.21    6.00
   9  -7   5  117.54    6.99
   9   7   5  106.60    6.02
   9   7   5  101.64    6.63
   9   7   6   45.74    3.22
   9   7   6   47.43    3.88
   9   7   7   83.42    4.75
   9   7   7   79.03    5.39
   9  -7   8   80.96    5.12
   9   7   8   79.36    4.50
   9   7   8   75.48    5.16
   9  -7   9   46.72    3.45
   9   7   9   45.93    2.96
   9  -7  10    2.04    0.75
   9  -7  11    4.48    0.84
  -9   8  19   19.93    1.70
   9   8 -18 1036.39   44.07
   9  -8 -18 1054.98   44.93
   9   8 -17   60.27    3.37
  -9   8  17   64.80    4.03
   9  -8 -17   60.85    3.99
  -9   8  16    2.36    0.79
   9  -8 -16    2.57    0.90
   9   8 -16    4.19    0.77
   9   8 -15    9.71    1.24
  -9   8  15   11.91    1.63
   9   8 -15    9.20    0.92
  -9   8  14    7.89    1.36
   9   8 -14    6.38    0.78
   9   8 -14    6.22    1.09
  -9   8  13   36.39    3.04
   9  -8 -13   28.83    1.95
   9   8 -13   33.83    2.16
   9   8 -13   36.59    2.70
  -9   8  12   88.48    5.53
   9  -8 -12   93.00    5.88
   9   8 -12   95.05    5.20
   9  -8 -12   78.71    4.26
   9   8 -12   90.47    4.52
  -9   8  11   10.74    1.66
   9  -8 -11   12.05    1.91
   9  -8 -11   10.03    1.05
   9   8 -11   11.44    1.21
   9   8 -11   13.46    1.71
  -9   8  10  295.37   13.68
   9  -8 -10  250.29   12.12
   9   8 -10  296.12   12.47
   9   8 -10  307.01   13.38
   9  -8 -10  290.37   14.13
   9   8  -9    2.80    1.00
   9  -8  -9    4.78    1.38
   9   8  -9    3.28    0.70
   9  -8  -9    5.18    1.29
   9  -8  -8   17.40    2.30
   9   8  -8   14.83    1.92
   9  -8  -8   16.13    2.13
   9   8  -7    3.82    1.14
   9  -8  -7    3.32    1.17
   9  -8  -7    2.99    1.13
   9  -8  -6  148.54    8.48
   9  -8  -6  143.67    8.18
   9  -8  -5    8.76    1.04
   9   8  -5    9.50    1.16
   9  -8  -5    9.53    1.72
   9  -8  -5   11.14    1.63
   9   8  -4  544.79   22.30
   9  -8  -4  454.48   20.84
   9   8  -4  510.86   21.20
   9  -8  -4  477.77   22.44
   9  -8  -4  508.30   22.17
   9  -8  -3   67.18    4.72
   9   8  -3   74.56    4.56
   9   8  -3   64.93    4.48
   9  -8  -3   59.71    3.54
   9   8  -3   64.13    3.79
   9  -8  -3   62.79    4.52
   9  -8  -2    4.77    1.28
   9   8  -2    6.05    1.28
   9   8  -2    8.40    1.09
   9  -8  -2    3.10    0.69
   9  -8  -2    7.15    1.43
   9  -8  -1  183.33    9.61
   9   8  -1  190.64    9.45
   9  -8  -1  163.73    8.29
   9   8  -1  189.03    8.67
   9  -8  -1  193.53    9.86
   9  -8   0  129.95    7.45
   9   8   0  143.22    7.40
   9  -8   0  142.11    7.87
   9  -8   0  121.39    6.33
   9   8   0  133.86    6.66
   9  -8   1  102.06    6.27
   9  -8   1   85.30    4.77
   9   8   1   98.23    5.14
   9  -8   1   98.83    5.86
   9  -8   2   52.73    3.22
   9  -8   2   56.74    4.41
   9   8   2   57.34    3.49
   9  -8   2   61.53    4.11
   9  -8   3   65.74    4.81
   9  -8   3   61.91    4.13
   9   8   3   71.47    4.30
   9  -8   3   57.84    3.50
   9   8   3   63.72    3.76
   9  -8   4  131.10    7.34
   9  -8   4  110.71    6.18
   9   8   4  122.52    6.46
   9  -8   4  104.91    5.62
   9   8   4  127.65    6.05
   9  -8   5   44.58    3.74
   9   8   5   41.76    3.10
   9  -8   6  423.05   19.21
   9   8   6  407.62   18.32
   9   8   7    1.47    0.70
   9   8   8  899.21   37.64
   9   8   9   48.88    3.02
   9  -8   9   46.28    3.37
   9  -8  10   87.41    4.86
   9  -8  11    2.55    0.59
  -9   9  18    3.08    0.69
   9   9 -18    2.38    0.43
  -9   9  18    2.21    0.53
   9   9 -17   27.21    1.85
   9  -9 -17   33.51    2.53
  -9   9  17   35.95    2.55
   9   9 -16   14.64    1.32
  -9   9  16   15.95    1.73
   9  -9 -16   15.69    1.80
  -9   9  15    2.11    0.77
   9  -9 -15    1.19    0.70
   9   9 -15    1.46    0.59
   9   9 -14   34.96    2.51
  -9   9  14   34.03    2.89
   9   9 -13    4.08    0.90
  -9   9  13    6.11    1.23
   9   9 -12  267.07   12.34
  -9   9  12  265.37   12.94
   9   9 -11   85.76    4.97
   9  -9 -11   76.27    5.49
  -9   9  11   86.38    5.38
   9   9 -10   73.36    4.59
   9  -9 -10   67.98    5.13
  -9   9  10   77.69    4.98
   9  -9  -9  102.23    6.38
   9  -9  -9   88.11    5.74
   9   9  -9   96.96    5.59
  -9   9   9   91.27    5.77
   9  -9  -8  140.72    8.63
   9   9  -8  168.27    8.23
   9  -9  -8  148.28    8.37
   9  -9  -7   22.73    2.70
   9   9  -7   24.00    2.41
   9  -9  -7   25.05    2.69
   9  -9  -6   86.39    6.04
   9  -9  -6   87.35    5.82
   9  -9  -5  201.28   10.11
   9  -9  -5  198.25   10.56
   9  -9  -5  213.35   10.94
   9   9  -4    9.52    1.54
   9  -9  -4   10.74    1.56
   9  -9  -3  172.95    9.45
   9  -9  -3  178.70    9.72
   9   9  -3  194.97    9.51
   9   9  -3  188.19    9.58
   9  -9  -2    0.30    0.78
   9   9  -2    1.64    0.73
   9  -9  -2    0.95    0.88
   9   9  -2    1.97    0.92
   9  -9  -1   84.48    5.61
   9  -9  -1   80.35    5.47
   9   9  -1   97.73    5.48
   9   9  -1   88.70    5.47
   9  -9   0  317.54   15.38
   9  -9   0  316.66   15.14
   9   9   0  322.49   14.88
   9  -9   1   56.97    4.14
   9  -9   1   60.42    4.46
   9  -9   2  226.62   11.29
   9  -9   2  236.71   11.88
   9  -9   3  131.20    7.13
   9  -9   3  139.59    7.87
   9  -9   4    9.18    1.29
   9  -9   4   10.79    1.83
   9  -9   5  162.71    8.83
   9  -9   6  124.21    7.12
   9   9   6  124.81    6.57
   9  -9   7   57.76    4.12
   9   9   7   62.43    3.77
   9   9   8    8.41    1.12
   9  -9   9    0.99    0.68
   9   9   9    0.66    0.40
   9  -9  10    2.35    0.66
   9  -9  11   18.67    1.45
  -9  10  18   26.79    1.81
  -9  10  18   19.94    1.51
   9  10 -17    1.74    0.39
  -9  10  17    2.30    0.65
  -9  10  16  316.11   13.31
   9  10 -16  274.50   12.38
   9 -10 -16  295.07   13.31
  -9  10  15   28.03    2.38
   9  10 -15   27.46    1.92
   9 -10 -15   27.63    2.46
   9  10 -14   52.23    3.15
  -9  10  14   52.08    3.66
   9 -10 -14   54.68    3.88
   9  10 -13   54.58    3.34
  -9  10  13   55.40    3.86
   9 -10 -13   53.16    4.01
   9  10 -12  409.80   17.72
  -9  10  12  393.73   18.32
   9  10 -11  227.33   10.68
  -9  10  11  225.13   11.27
   9  10 -10  195.86    9.34
  -9  10  10  187.74    9.76
   9 -10 -10  182.96   10.12
   9 -10  -9    5.94    1.35
  -9  10   9    9.47    1.50
   9  10  -9    5.73    1.20
   9 -10  -9    7.53    1.62
   9 -10  -8  132.68    7.86
   9 -10  -8  126.83    7.40
   9  10  -8  136.81    7.19
  -9  10   8  135.48    7.46
   9 -10  -7   66.17    4.79
   9  10  -7   77.94    4.73
   9 -10  -7   71.08    5.15
   9 -10  -6  262.20   13.32
   9  10  -6  287.62   13.14
   9 -10  -6  269.46   13.69
   9  10  -5    0.84    0.67
   9 -10  -5    1.88    1.04
   9  10  -5    1.99    0.98
   9  10  -4   49.71    3.39
   9 -10  -4   35.51    3.01
   9 -10  -3   29.24    2.92
   9 -10  -3   27.26    2.61
   9 -10  -2   25.65    2.60
   9 -10  -2   27.09    2.78
   9  10  -2   30.75    2.62
   9  10  -2   30.80    2.78
   9 -10  -1   35.52    3.12
   9 -10  -1   34.85    3.12
   9  10  -1   35.44    2.88
   9  10   0    7.42    1.31
   9 -10   0    7.16    1.37
   9 -10   0    5.70    1.27
   9 -10   1  278.33   13.40
   9 -10   1  258.26   13.00
   9  10   1  284.08   12.97
   9 -10   2   27.31    2.72
   9 -10   2   22.30    2.31
   9  10   2   26.40    2.40
   9 -10   3   19.08    2.27
   9 -10   3   14.92    1.72
   9  10   3   20.96    2.04
   9 -10   4  159.42    7.79
   9 -10   4  118.92    6.58
   9 -10   5   15.96    2.03
   9 -10   6    5.90    1.25
   9 -10   7   29.22    2.55
   9 -10   8    2.31    0.85
   9 -10  10   94.25    4.77
  -9  11  17  250.87   11.06
  -9  11  17  253.18   11.14
   9  11 -16    0.75    0.30
  -9  11  16    0.55    0.45
   9 -11 -15    3.41    0.80
   9  11 -15    2.45    0.49
  -9  11  15    3.35    0.77
  -9  11  14   88.21    4.88
   9  11 -14   79.69    4.21
   9 -11 -14   82.64    4.94
   9  11 -13   77.59    4.08
  -9  11  13   75.06    4.60
   9 -11 -13   71.00    4.70
  -9  11  12    2.20    0.84
   9 -11 -12    1.26    0.83
   9  11 -11  205.48    9.84
  -9  11  11  219.69   10.53
   9  11 -10   16.84    1.70
  -9  11  10   14.42    1.83
   9 -11  -9   46.71    3.51
   9  11  -9   46.16    3.22
  -9  11   9   45.03    3.51
   9 -11  -9   49.67    3.89
   9 -11  -8   26.56    2.65
   9  11  -8   30.71    2.55
  -9  11   8   32.68    2.82
   9 -11  -8   30.96    3.00
   9 -11  -7  114.88    7.02
   9  11  -7  117.90    6.42
   9 -11  -7  110.23    6.67
   9  11  -7  121.74    6.32
   9  11  -6    8.22    1.46
   9  11  -6    8.73    1.35
   9 -11  -6    8.62    1.57
   9  11  -5 1049.48   43.73
   9 -11  -5  962.97   43.97
   9  11  -5 1081.60   43.54
   9  11  -4  118.34    6.63
   9  11  -4  118.22    6.42
   9  11  -3   89.20    5.08
   9 -11  -3   79.96    4.91
   9  11  -2   23.90    2.23
   9 -11  -2   21.18    2.37
   9 -11  -2   21.65    2.18
   9  11  -1    4.48    1.02
   9 -11  -1    3.25    1.06
   9 -11  -1    3.98    1.05
   9  11   0    0.57    0.61
   9 -11   0    1.61    0.92
   9 -11   0    0.27    0.76
   9  11   1    6.58    1.17
   9 -11   1    4.88    1.16
   9 -11   1    7.48    1.42
   9  11   2  206.03    9.50
   9 -11   2  176.93    9.31
   9 -11   2  191.29    9.78
   9  11   3  138.64    6.80
   9 -11   3  117.10    6.48
   9 -11   3  125.45    7.04
   9  11   4    3.05    0.79
   9 -11   4    0.16    0.28
   9 -11   4    2.83    1.00
   9  11   5   39.75    2.85
   9 -11   5   41.47    3.17
   9  11   6    4.65    0.89
   9 -11   6    4.96    1.10
   9 -11   7  144.64    7.33
   9 -11   8    0.83    0.55
  -9  12  15    5.40    0.82
   9  12 -15    3.55    0.47
  -9  12  14   55.72    3.16
   9  12 -14   45.35    2.49
   9  12 -14   40.81    2.40
   9 -12 -14   52.87    3.25
   9  12 -13  118.05    5.83
   9  12 -13  127.75    5.96
  -9  12  13  134.40    6.61
   9 -12 -13  134.97    6.79
   9  12 -12  310.12   13.67
  -9  12  12  329.65   14.38
   9 -12 -12  304.71   14.53
   9  12 -11   23.71    1.79
   9  12 -11   20.08    1.77
  -9  12  11   27.39    2.30
   9 -12 -11   24.30    2.39
   9  12 -10  257.78   11.49
   9  12 -10  258.78   11.61
  -9  12  10  248.65   12.08
   9  12  -9    5.76    0.94
   9 -12  -9    4.78    1.12
   9  12  -9    5.58    1.05
  -9  12   9    6.15    1.18
   9 -12  -8   14.84    1.82
   9  12  -8   15.72    1.55
   9  12  -8   14.16    1.60
  -9  12   8   16.00    1.84
   9  12  -7    6.26    1.10
   9  12  -7    5.88    1.02
   9 -12  -7    6.21    1.25
   9  12  -6   55.72    3.57
   9 -12  -6   47.09    3.69
   9  12  -6   51.82    3.37
   9  12  -5   92.89    5.10
   9  12  -5   88.66    5.23
   9 -12  -5   92.53    5.63
   9  12  -4    7.68    1.19
   9 -12  -4    5.52    1.32
   9  12  -3    8.08    1.26
   9 -12  -2   19.46    1.94
   9  12  -2   26.99    2.22
   9 -12  -2   22.02    2.34
   9 -12  -1    1.16    0.69
   9  12  -1    1.76    0.76
   9 -12  -1    1.42    0.82
   9 -12   0   21.33    2.14
   9  12   0   26.22    2.23
   9 -12   0   24.48    2.32
   9 -12   1  301.27   14.61
   9 -12   1  293.94   14.53
   9 -12   2  282.74   13.13
   9  12   2  311.29   13.02
   9 -12   3  110.15    6.22
   9 -12   3  105.69    5.81
   9 -12   4   10.86    1.41
   9  12   4   12.74    1.32
   9 -12   5  168.63    8.39
   9  12   5  172.00    8.17
   9 -12   6    1.26    0.66
   9  12   6    0.68    0.43
   9 -12   7   37.60    2.66
   9  12   7   45.38    2.64
   9 -12   8    4.69    0.76
  -9  13  14   39.87    2.47
   9  13 -13   17.94    1.20
  -9  13  13   21.87    1.71
   9  13 -12   61.43    3.21
  -9  13  12   73.96    3.91
   9  13 -11    2.17    0.47
  -9  13  11    1.45    0.61
   9  13 -10   14.86    1.28
   9  13 -10   14.54    1.36
  -9  13  10   17.02    1.70
   9  13  -9   54.45    3.10
  -9  13   9   55.32    3.59
   9  13  -8    5.97    0.85
   9 -13  -8    5.23    1.11
  -9  13   8    4.01    0.90
   9 -13  -7   63.86    4.09
   9  13  -7   62.30    3.57
   9  13  -6    1.29    0.55
   9 -13  -6    1.65    0.84
   9  13  -5    2.79    0.72
   9 -13  -5    2.30    0.87
   9 -13  -4    9.78    1.52
   9  13  -4   10.46    1.26
   9  13  -3  186.59    8.87
   9 -13  -2  128.03    7.04
   9  13  -2  134.69    6.67
   9 -13  -1    6.36    1.24
   9  13  -1   10.55    1.28
   9 -13   0   26.71    2.13
   9 -13   0   26.44    2.30
   9  13   0   26.22    2.13
   9 -13   1   81.28    4.76
   9 -13   1   81.95    4.88
   9 -13   2  374.45   16.61
   9 -13   2  346.08   16.41
   9  13   3    1.19    0.55
   9 -13   3    1.73    0.58
   9 -13   3    1.23    0.63
   9  13   4   90.19    4.56
   9 -13   4   78.72    4.57
   9  13   5  255.34   11.04
   9 -13   5  236.74   11.09
   9  13   6  105.68    4.99
   9 -13   6   94.98    5.03
   9 -13   7    1.39    0.45
  -9  14  11   78.98    4.16
   9  14 -10   29.27    1.77
  -9  14  10   37.72    2.35
   9  14  -9    4.01    0.57
  -9  14   9    5.76    0.88
   9  14  -8   52.40    2.79
   9 -14  -8   54.11    3.32
  -9  14   8   46.86    3.10
   9  14  -7    5.28    0.74
   9 -14  -7    5.79    1.02
   9  14  -6  214.76    9.60
   9 -14  -6  216.88   10.24
   9  14  -5   13.88    1.28
   9 -14  -5   15.74    1.70
   9  14  -4  112.02    5.43
   9 -14  -4  105.63    5.90
   9  14  -3  107.44    5.36
   9  14  -2  112.28    5.58
   9  14  -1  213.81    9.56
   9 -14  -1  203.97    9.90
   9  14   0    4.52    0.77
   9 -14   0    3.94    0.88
   9  14   1    5.01    0.78
   9 -14   1    4.13    0.83
   9 -14   2  108.92    5.67
   9 -14   2  113.26    5.78
   9  14   3   12.96    1.09
   9 -14   3    8.70    0.95
   9 -14   4   22.15    1.64
   9  14   4   24.30    1.68
   9  14   5  100.45    4.78
   9  15  -7    0.89    0.30
   9 -15  -7    1.14    0.56
   9 -15  -6   16.29    1.47
   9  15  -6   10.31    0.91
   9  15  -5    1.06    0.36
   9 -15  -5    1.20    0.58
   9 -15  -4   13.77    1.41
   9  15  -4    9.99    0.93
   9  15  -3    5.58    0.69
   9  15  -2  121.97    5.65
   9 -15  -1  223.72   10.01
   9  15  -1  215.38    9.55
   9 -15   0  120.40    5.68
   9  15   0  109.87    5.30
   9 -15   1    4.13    0.66
   9  15   1    3.74    0.56
   9 -15   2    3.85    0.60
   9  15   2    5.84    0.66
   9 -16  -5   39.34    2.39
   9 -16  -4   17.95    1.45
   9 -16  -3   65.97    3.54
   9 -16  -1   11.66    1.07
  10   0 -21    0.03    0.23
  10   0 -20   18.93    1.36
  10   0 -19    0.40    0.40
  10   0 -18   56.13    3.25
  10   0 -17    0.70    0.54
  10   0 -16  123.39    6.29
  10   0 -15    0.28    0.63
  10   0 -14  258.47   11.95
  10   0 -13    0.69    0.65
  10   0 -12    3.11    0.90
  10   0 -11   -0.88    1.43
  10   0 -11    0.30    0.66
  10   0 -10 2253.27  107.76
  10   0 -10 2356.33   95.96
  10   0  -9   -0.87    2.46
  10   0  -9    0.59    0.69
  10   0  -8    1.72    2.23
  10   0  -8    0.68    0.55
  10   0  -7    1.72    1.98
  10   0  -7   -0.10    0.62
  10   0  -6   20.43    5.40
  10   0  -6   27.43    2.23
  10   0  -5    0.84    1.38
  10   0  -5    0.49    0.77
  10   0  -5    1.28    0.63
  10   0  -4  484.14   21.25
  10   0  -4  440.45   19.89
  10   0  -3   -0.84    1.95
  10   0  -3    0.55    0.41
  10   0  -3    0.84    0.95
  10   0  -2    0.90    1.03
  10   0  -2    0.31    0.55
  10   0  -2    1.37    0.50
  10   0  -2    1.02    0.90
  10   0  -1    0.45    1.04
  10   0  -1    0.21    0.55
  10   0  -1    0.81    0.39
  10   0  -1    0.17    0.77
  10   0   0   43.76    3.12
  10   0   0   43.06    5.52
  10   0   1    0.89    0.90
  10   0   1    0.85    0.67
  10   0   2  143.37    8.15
  10   0   2  139.99    7.25
  10   0   2  129.71   10.63
  10   0   3   -0.21    0.57
  10   0   3    1.04    1.00
  10   0   3    0.53    1.42
  10   0   4   29.07    2.42
  10   0   4   32.30    3.07
  10   0   4   25.43    3.51
  10   0   5    1.26    1.43
  10   0   5    2.26    1.02
  10   0   5    1.14    0.72
  10   0   6   33.70    2.56
  10   0   6   37.03    3.15
  10   0   7    0.23    1.20
  10   0   7    0.54    0.71
  10   0   7    0.28    0.49
  10   0   8   20.77    2.10
  10   0   8   25.07    3.03
  10   0   9    2.20    1.16
  10   0   9    0.26    0.17
  10   0  10    2.97    1.18
  10   1 -21   44.58    2.29
  10   1 -20   56.94    2.96
  10   1 -19   11.40    1.12
  10   1 -18   81.32    4.29
  10   1 -17  162.04    7.74
  10   1 -16  150.61    7.40
  10   1 -15  231.71   10.80
  10   1 -14   22.06    2.03
  10   1 -13    3.38    0.91
  10   1 -12    6.68    1.16
  10  -1 -11  291.19   22.24
  10   1 -11  302.30   13.75
  10  -1 -10  158.88   15.29
  10   1 -10  159.43    7.99
  10   1  -9  233.94   10.61
  10  -1  -9  225.11   18.66
  10  -1  -9  208.25   10.90
  10   1  -8   74.67    4.16
  10  -1  -8   56.80    8.76
  10  -1  -8   56.93    4.13
  10   1  -7   22.67    2.04
  10  -1  -7   26.96    5.99
  10   1  -6    6.23    1.07
  10  -1  -6    5.02    2.56
  10  -1  -6    3.34    1.15
  10   1  -5   38.65    2.80
  10  -1  -5   31.90    2.47
  10  -1  -5   34.77    6.63
  10  -1  -5   32.67    3.18
  10   1  -4  201.22    9.82
  10  -1  -4  211.43   17.70
  10   1  -4  211.20   10.86
  10  -1  -4  209.46   10.84
  10   1  -3  396.72   17.97
  10   1  -3  441.75   19.38
  10  -1  -3  411.62   19.20
  10   1  -3  406.05   17.95
  10  -1  -3  442.77   27.96
  10   1  -2   89.52    8.37
  10   1  -2   91.51    5.03
  10   1  -2   76.59    4.55
  10  -1  -2   89.78    5.81
  10   1  -2   86.00    5.71
  10   1  -2   83.58    4.62
  10   1  -1   76.15    7.88
  10   1  -1   84.24    4.85
  10  -1  -1   90.80    5.78
  10   1  -1   77.55    4.45
  10   1   0    1.82    1.39
  10   1   0    2.56    0.83
  10   1   0    2.42    0.65
  10  -1   0    2.98    1.23
  10   1   1   24.68    2.26
  10   1   1   33.62    4.75
  10   1   1   27.13    2.89
  10   1   1   25.31    2.00
  10   1   2    9.32    1.37
  10   1   2    7.72    2.43
  10   1   2    9.38    1.12
  10   1   2   11.02    1.81
  10   1   3  109.07    5.87
  10   1   3   93.45    5.20
  10   1   3  108.20    6.61
  10  -1   3  115.91    7.85
  10  -1   3  121.79    6.91
  10   1   4  194.76    9.54
  10   1   4  185.49   10.21
  10  -1   4  199.68   11.66
  10  -1   4  203.57   10.50
  10   1   5  185.03    9.01
  10   1   5  176.87    9.63
  10  -1   5  182.07   10.94
  10  -1   5  186.29    9.83
  10  -1   6    3.11    1.69
  10   1   6    2.31    0.99
  10  -1   6    3.08    1.05
  10   1   6    4.01    0.91
  10   1   7  110.28    5.89
  10   1   7  103.58    6.22
  10  -1   7  115.31    6.52
  10  -1   7  120.90    7.67
  10  -1   8  148.02    7.96
  10  -1   8  167.06    9.33
  10  -1   9   16.84    1.71
  10  -1   9   19.40    2.56
  10  -1  10   89.58    5.73
  10   2 -21  169.81    7.55
  10  -2 -21  168.43    7.44
  10   2 -21  183.57    7.49
  10  -2 -20   49.67    2.64
  10   2 -20   50.91    2.66
  10  -2 -19    1.52    0.48
  10   2 -19    1.85    0.50
  10  -2 -18    9.77    1.11
  10   2 -18   11.82    1.17
  10  -2 -17  136.42    6.85
  10   2 -17  149.72    6.96
  10  -2 -16  227.78   10.64
  10   2 -16  237.32   10.71
  10  -2 -15   10.83    1.32
  10   2 -15    9.11    1.25
  10  -2 -14   29.06    2.36
  10   2 -14   31.37    2.44
  10  -2 -13    1.87    0.76
  10   2 -13    1.96    0.75
  10  -2 -12  128.54    6.65
  10   2 -12  129.91    6.74
  10  -2 -11   12.60    3.96
  10   2 -11   19.33    4.82
  10  -2 -11   18.86    1.85
  10   2 -11   22.24    2.02
  10  -2 -10  298.41   22.57
  10   2 -10  303.46   23.18
  10  -2 -10  322.84   14.28
  10   2 -10  312.32   14.34
  10  -2  -9   12.01    1.68
  10  -2  -9   12.49    4.32
  10   2  -9   10.56    3.95
  10  -2  -9    8.73    1.28
  10   2  -9   10.86    1.44
  10  -2  -8  544.63   25.96
  10  -2  -8  649.22   36.29
  10   2  -8  643.49   36.90
  10  -2  -8  588.06   25.43
  10   2  -8  634.33   25.66
  10  -2  -7   12.24    1.66
  10  -2  -7   13.99    4.39
  10   2  -7   13.10    4.32
  10  -2  -7   14.72    1.56
  10   2  -7   16.30    1.67
  10  -2  -6    1.55    0.73
  10   2  -6    1.76    0.72
  10  -2  -6    1.63    1.89
  10   2  -6    2.60    2.45
  10  -2  -6    2.20    1.01
  10   2  -6    2.02    0.83
  10  -2  -5  119.32    6.99
  10  -2  -5  136.14   13.27
  10   2  -5  128.28   13.23
  10   2  -5  111.49    6.31
  10  -2  -4    7.30    2.97
  10   2  -4    5.18    3.00
  10  -2  -4    4.43    1.22
  10   2  -4    5.70    1.10
  10   2  -3  210.17   10.18
  10  -2  -3  217.61   11.20
  10  -2  -3  219.03   18.03
  10   2  -3  229.38   18.80
  10  -2  -2   96.88    8.55
  10   2  -2   88.73    8.41
  10  -2  -2   91.74    5.12
  10   2  -2   93.31    5.25
  10   2  -2   87.34    4.96
  10   2  -2   87.19    4.94
  10  -2  -2   89.56    5.92
  10  -2  -1    1.72    1.23
  10   2  -1    5.98    2.06
  10  -2  -1    4.31    0.94
  10   2  -1    4.82    1.02
  10   2  -1    4.33    0.82
  10   2  -1    4.23    0.84
  10  -2  -1    4.33    1.31
  10  -2   0   41.61    3.07
  10   2   0   49.56    3.32
  10  -2   0   46.87    5.68
  10   2   0   38.21    5.35
  10   2   0   41.06    2.90
  10   2   0   49.82    3.93
  10  -2   0   43.80    3.80
  10  -2   1  146.12    7.31
  10   2   1  141.73    7.35
  10  -2   1  129.42   10.53
  10   2   1  147.03   11.24
  10   2   1  129.81    6.92
  10   2   1  154.41    8.29
  10  -2   1  151.73    8.42
  10  -2   2   11.76    1.50
  10   2   2   16.99    1.80
  10  -2   2    9.85    2.68
  10   2   2   14.92    2.09
  10   2   2   15.85    1.51
  10   2   3   92.83    5.14
  10  -2   3   83.71    4.91
  10   2   3   82.11    4.60
  10   2   3   85.65    5.67
  10  -2   3   88.29    5.85
  10  -2   4  123.07    6.48
  10   2   4  123.17    6.57
  10   2   4  114.91    6.04
  10   2   4  118.46    7.12
  10  -2   4  132.66    8.52
  10   2   4  132.01    8.47
  10  -2   4  130.47    7.48
  10  -2   5  161.31    8.16
  10   2   5  176.63    8.41
  10   2   5  159.34    7.75
  10   2   5  154.02    8.75
  10  -2   5  167.87   10.19
  10   2   5  170.78   10.25
  10  -2   5  185.95    9.35
  10  -2   6   28.50    2.00
  10   2   6   29.79    2.09
  10   2   6   27.31    2.37
  10  -2   6   30.87    3.39
  10   2   6   29.84    3.32
  10  -2   6   28.16    2.57
  10  -2   7  136.83    7.10
  10   2   7  147.69    7.29
  10  -2   7  163.60    9.19
  10   2   7  144.36    8.90
  10  -2   7  141.38    7.87
  10  -2   8    4.30    1.52
  10   2   8    5.00    1.57
  10  -2   8    2.33    0.86
  10  -2   9  176.57    9.26
  10   2   9  172.26    9.23
  10  -2   9  150.06    7.94
  10  -2  10  156.91    5.69
  10   2  10  159.03    5.83
  10  -3 -20   78.62    3.87
  10   3 -20   87.81    3.95
  10  -3 -19    0.75    0.52
  10  -3 -19    0.85    0.38
  10   3 -19    1.53    0.43
  10  -3 -18   38.01    2.37
  10   3 -18   39.70    2.42
  10  -3 -17  112.44    5.56
  10   3 -17  111.48    5.58
  10   3 -16    7.31    1.04
  10  -3 -16    5.48    0.93
  10  -3 -15    1.30    0.66
  10   3 -15    2.72    0.75
  10  -3 -14   66.32    3.94
  10   3 -14   68.89    4.05
  10  -3 -13  150.19    7.41
  10   3 -13  150.15    7.52
  10  -3 -12   16.33    1.68
  10   3 -12   18.06    1.80
  10  -3 -11  136.69    6.81
  10   3 -11  130.78    6.89
  10  -3 -10    8.36    1.48
  10  -3 -10    6.46    2.97
  10   3 -10    9.54    3.34
  10  -3 -10    8.54    1.20
  10   3 -10    8.88    1.27
  10  -3  -9   33.27    3.06
  10  -3  -9   30.60    6.13
  10  -3  -9   38.83    2.68
  10   3  -9   35.90    2.74
  10  -3  -8   34.93    3.15
  10  -3  -8   41.44    2.83
  10   3  -8   44.32    3.01
  10   3  -8   34.93    6.96
  10  -3  -8   46.52    7.41
  10  -3  -7    2.76    0.81
  10   3  -7    2.57    0.81
  10   3  -7    2.95    0.96
  10  -3  -7    1.96    0.94
  10  -3  -7    0.80    2.06
  10   3  -7    3.48    2.25
  10  -3  -7    1.40    0.78
  10  -3  -6  268.76   12.77
  10  -3  -6  230.90   12.17
  10  -3  -6  223.31   18.79
  10   3  -6  270.40   20.84
  10   3  -6  261.59   12.25
  10   3  -6  264.25   11.87
  10  -3  -5   55.51    4.15
  10   3  -5   51.13    3.64
  10  -3  -5   47.31    7.75
  10   3  -5   58.72    8.83
  10   3  -4    0.92    0.65
  10  -3  -4    1.59    1.30
  10   3  -4    0.87    2.24
  10  -3  -4    1.31    1.00
  10  -3  -3   25.93    4.14
  10   3  -3   28.54    4.50
  10  -3  -3   27.19    2.30
  10   3  -3   30.90    2.50
  10   3  -3   28.56    2.41
  10  -3  -3   26.86    5.59
  10   3  -3   27.65    6.01
  10  -3  -3   27.81    2.87
  10  -3  -2    2.10    1.19
  10   3  -2    2.77    1.51
  10  -3  -2    1.94    0.65
  10   3  -2    1.18    0.63
  10   3  -2    1.84    0.72
  10   3  -2    2.17    0.70
  10  -3  -2    2.72    1.15
  10  -3  -1  137.21   10.85
  10   3  -1  163.00   12.03
  10  -3  -1  154.88    7.69
  10   3  -1  158.97    7.87
  10   3  -1  144.56    7.52
  10   3  -1  149.11    7.59
  10  -3  -1  163.40    8.81
  10  -3   0   40.45    2.89
  10   3   0   38.83    2.95
  10  -3   0   40.91    5.19
  10   3   0   39.24    5.38
  10   3   0   33.27    2.58
  10   3   0   44.89    2.93
  10  -3   0   44.58    3.74
  10  -3   1  169.59    8.49
  10   3   1  181.43    8.73
  10  -3   1  161.22   11.92
  10   3   1  178.24   12.82
  10   3   1  161.79    8.33
  10   3   1  187.20    9.55
  10  -3   1  178.47    9.63
  10  -3   2   78.52    4.70
  10   3   2   89.83    4.99
  10   3   2   77.71    4.57
  10   3   2   86.55    5.56
  10  -3   2   84.69    5.75
  10  -3   3  809.94   34.18
  10   3   3  843.30   34.44
  10   3   3  823.86   35.14
  10   3   3  775.80   33.91
  10  -3   4  299.33   13.74
  10   3   4  315.32   13.99
  10   3   4  282.91   13.44
  10  -3   4  337.37   15.15
  10  -3   5    2.06    0.67
  10   3   5    1.47    0.76
  10   3   5    1.02    0.48
  10  -3   5    3.25    1.54
  10   3   5    1.39    1.39
  10  -3   5    1.99    1.07
  10  -3   6   11.17    1.32
  10   3   6   10.85    1.37
  10   3   6    8.43    1.06
  10  -3   6   14.49    2.33
  10  -3   6   10.54    1.76
  10   3   6   10.88    2.18
  10   3   7  102.47    3.65
  10  -3   7  103.07    5.57
  10   3   7  112.86    5.79
  10  -3   7   95.28    4.36
  10  -3   8   77.77    5.44
  10   3   8   72.51    5.42
  10  -3   8   71.14    4.59
  10  -3   9  154.65    8.31
  10   3   9  144.16    8.28
  10  -3   9  140.00    7.32
  10  -3  10    4.42    0.77
  10   4 -20    3.32    0.52
  10  -4 -20    2.67    0.38
  10   4 -20    3.26    0.44
  10   4 -19    0.11    0.37
  10  -4 -19    0.40    0.28
  10   4 -19    0.29    0.29
  10  -4 -18  251.80   11.21
  10   4 -18  273.74   11.31
  10  -4 -18  246.23   12.03
  10  -4 -17    3.70    0.68
  10   4 -17    3.96    0.73
  10  -4 -17    3.27    0.92
  10   4 -16  260.14   11.07
  10  -4 -16  231.81   10.89
  10   4 -15  268.03   11.95
  10  -4 -15  261.55   11.84
  10  -4 -14   38.49    2.66
  10   4 -14   44.00    2.85
  10   4 -13    6.01    1.08
  10  -4 -13    8.80    1.13
  10  -4 -13    7.17    1.42
  10  -4 -12   36.28    2.57
  10   4 -12   38.75    2.74
  10  -4 -12   34.95    3.21
  10  -4 -11   14.08    1.53
  10   4 -11   16.13    1.65
  10  -4 -11   15.82    2.09
  10  -4 -10   40.08    2.82
  10   4 -10   45.87    3.06
  10  -4 -10   35.47    6.53
  10   4 -10   49.67    7.78
  10  -4 -10   44.48    3.60
  10  -4  -9  195.62    9.39
  10   4  -9  213.07    9.69
  10  -4  -9  213.96   17.24
  10   4  -9  210.88   17.81
  10  -4  -9  186.96   10.25
  10   4  -8   53.96    3.81
  10  -4  -8   44.98    3.76
  10  -4  -8   48.84    3.16
  10   4  -8   51.38    3.36
  10  -4  -8   59.37    8.26
  10   4  -8   47.88    7.84
  10  -4  -7    1.10    0.61
  10   4  -7    0.39    0.55
  10   4  -7    1.04    0.81
  10  -4  -7    0.77    1.77
  10   4  -7    0.85    1.97
  10  -4  -7    0.60    0.67
  10  -4  -7    0.59    0.68
  10   4  -6  484.83   20.97
  10  -4  -6  485.89   21.33
  10  -4  -6  468.83   29.17
  10   4  -6  483.76   30.51
  10  -4  -6  432.19   20.94
  10   4  -5  435.69   19.14
  10  -4  -5  396.26   19.05
  10  -4  -5  452.77   19.71
  10  -4  -5  388.54   26.42
  10   4  -5  429.19   28.32
  10   4  -4    2.66    0.92
  10  -4  -4    3.83    2.50
  10   4  -4    3.43    2.62
  10  -4  -4    2.42    1.01
  10  -4  -3    5.25    1.88
  10   4  -3    7.79    2.38
  10  -4  -3    6.63    1.06
  10   4  -3    7.09    1.17
  10   4  -3    4.86    1.11
  10   4  -3    6.04    1.11
  10  -4  -3    5.95    1.37
  10  -4  -2  106.39    8.92
  10  -4  -2  102.89    5.68
  10   4  -2  117.52    6.02
  10   4  -2   93.42    5.75
  10   4  -2  106.77    5.84
  10  -4  -2  114.84    6.75
  10  -4  -1    6.04    2.04
  10   4  -1    5.51    2.07
  10  -4  -1    5.93    1.03
  10   4  -1    7.18    1.19
  10   4  -1    5.59    1.03
  10   4  -1    7.27    1.15
  10  -4  -1    6.22    1.47
  10  -4   0   71.09    4.21
  10   4   0   76.53    4.45
  10  -4   0   78.18    7.21
  10   4   0   76.16    7.64
  10   4   0   71.11    4.29
  10   4   0   65.86    4.13
  10  -4   0   67.02    4.99
  10  -4   1  193.07    9.45
  10   4   1  199.84    9.70
  10  -4   1  177.47   12.77
  10   4   1  212.11   14.18
  10   4   1  196.32    9.51
  10  -4   1  216.36   10.83
  10  -4   2   91.55    5.22
  10   4   2  104.75    5.58
  10   4   2   89.31    5.19
  10  -4   2  106.31    6.48
  10   4   3    0.84    0.56
  10  -4   3    2.08    0.73
  10   4   3    0.44    0.63
  10   4   4   55.32    3.57
  10   4   4   50.18    3.27
  10  -4   4   50.61    3.31
  10   4   5   41.64    2.91
  10  -4   5   47.73    3.09
  10   4   5   50.08    3.29
  10  -4   5   51.32    3.98
  10  -4   6    3.06    0.78
  10   4   6    3.09    0.81
  10   4   6    3.22    0.69
  10  -4   6    3.81    1.20
  10   4   7    5.07    0.79
  10  -4   7    4.13    1.16
  10  -4   8   59.69    4.01
  10  -4   9  104.61    5.67
  10  -4  10  258.62   11.55
  10   5 -20    0.45    0.24
  10  -5 -19   81.41    3.97
  10   5 -19   88.89    4.05
  10  -5 -18   15.91    1.22
  10   5 -18   19.34    1.33
  10  -5 -18   16.73    1.76
  10   5 -18   21.07    1.57
  10  -5 -17    2.70    0.56
  10   5 -17    3.42    0.62
  10   5 -17    4.11    0.76
  10  -5 -17    3.01    0.82
  10  -5 -16  130.26    7.28
  10  -5 -16  130.00    6.32
  10   5 -16  143.10    6.47
  10  -5 -15   40.16    3.22
  10  -5 -15   32.92    2.31
  10   5 -15   41.87    2.56
  10  -5 -14   39.89    3.28
  10  -5 -14   35.14    2.43
  10   5 -14   40.05    2.61
  10  -5 -13  289.41   13.98
  10  -5 -13  276.61   12.73
  10   5 -13  298.86   12.94
  10  -5 -12  157.84    8.75
  10  -5 -12  154.40    7.63
  10   5 -12  169.42    7.89
  10  -5 -11    7.56    1.46
  10   5 -11    8.65    1.19
  10  -5 -11    9.08    1.14
  10  -5 -10   36.70    2.54
  10   5 -10   38.31    2.70
  10  -5 -10   35.64    3.24
  10  -5  -9   61.07    3.68
  10   5  -9   64.48    3.89
  10  -5  -9   65.05    4.63
  10   5  -9   68.42    4.45
  10  -5  -8  119.40    7.19
  10  -5  -8  115.87    6.19
  10   5  -8  133.56    6.54
  10  -5  -8  118.37   12.00
  10   5  -8  123.54   12.96
  10   5  -8  137.92    7.16
  10   5  -7  713.46   29.25
  10  -5  -7  691.34   29.31
  10  -5  -7  619.44   36.68
  10   5  -7  648.22   38.32
  10  -5  -7  619.02   29.26
  10   5  -6  117.58    6.48
  10  -5  -6   99.96    6.44
  10  -5  -6  119.46    6.72
  10  -5  -6  112.95   11.67
  10   5  -6  108.95   12.17
  10   5  -5    4.67    1.12
  10  -5  -5    4.39    2.24
  10  -5  -5    1.70    0.76
  10   5  -5    4.16    2.54
  10  -5  -5    2.00    0.91
  10  -5  -4  114.65    9.37
  10   5  -4  148.78   10.87
  10  -5  -4  124.02    6.42
  10   5  -4  138.54    6.81
  10  -5  -4  107.08    6.76
  10   5  -4  134.88    7.05
  10  -5  -4  131.33   12.58
  10   5  -4  144.14   14.03
  10  -5  -4  123.74    7.30
  10  -5  -3   92.59    8.13
  10   5  -3   99.18    8.84
  10  -5  -3   93.42    5.20
  10   5  -3   96.39    5.43
  10   5  -3   95.60    5.65
  10   5  -3  102.25    5.64
  10  -5  -3  103.34    6.25
  10  -5  -2   10.89    1.35
  10   5  -2   13.96    1.60
  10  -5  -2   12.30    2.64
  10   5  -2    8.53    2.49
  10   5  -2   14.13    1.68
  10   5  -2   16.94    1.76
  10  -5  -2   15.05    2.07
  10  -5  -1   52.85    3.37
  10   5  -1   56.96    3.63
  10  -5  -1   42.51    5.26
  10   5  -1   50.69    6.02
  10   5  -1   50.25    3.54
  10   5  -1   59.11    3.69
  10  -5  -1   51.54    4.17
  10  -5   0    6.31    1.02
  10   5   0    6.24    1.10
  10   5   0    6.63    1.11
  10   5   0    6.86    1.13
  10  -5   0    6.80    1.59
  10  -5   1   20.31    1.89
  10   5   1   24.48    2.16
  10   5   1   21.57    2.02
  10  -5   1   25.42    2.75
  10  -5   2   78.09    4.42
  10   5   2   80.51    4.67
  10   5   2   78.19    4.57
  10  -5   2   69.48    5.24
  10  -5   3   33.46    2.50
  10   5   3   35.24    2.72
  10  -5   3   40.25    3.55
  10   5   3   34.69    2.63
  10   5   4   19.50    1.84
  10   5   4   23.49    2.06
  10  -5   4   20.72    1.84
  10   5   5  230.61   10.76
  10  -5   5  227.07   10.66
  10   5   5  244.80   11.00
  10  -5   6   20.84    2.36
  10   5   6   21.03    1.76
  10   5   6   22.57    1.91
  10  -5   6   16.81    1.60
  10   5   7    6.08    0.89
  10  -5   7    5.83    1.25
  10   5   8    1.14    0.43
  10  -5   8    0.57    0.67
  10  -5   9   34.23    2.57
  10  -5  10  242.74   10.86
  10   6 -19   25.48    1.60
  10   6 -18   58.12    1.64
  10  -6 -18   61.68    2.86
  10   6 -18   65.85    2.22
  10  -6 -17    0.35    0.28
  10   6 -17    0.73    0.34
  10   6 -17    0.13    0.44
  10  -6 -17    1.20    0.60
  10  -6 -16   17.21    1.29
  10   6 -16   16.46    1.33
  10  -6 -16   15.86    1.84
  10   6 -16   17.35    1.60
  10  -6 -15   17.91    1.46
  10   6 -15   20.26    1.59
  10  -6 -15   20.68    2.19
  10  -6 -14    2.08    0.53
  10   6 -14    2.40    0.62
  10   6 -14    1.96    0.75
  10  -6 -14    1.45    0.86
  10  -6 -13  162.07    7.99
  10   6 -13  176.01    8.20
  10  -6 -13  178.89    9.35
  10   6 -13  195.97    8.88
  10  -6 -12    6.67    0.94
  10   6 -12    8.65    1.09
  10   6 -12    7.31    1.35
  10  -6 -12    5.23    1.28
  10  -6 -11  262.74   12.06
  10   6 -11  289.01   12.36
  10  -6 -11  266.59   13.43
  10  -6 -10  353.85   16.06
  10   6 -10  401.72   16.43
  10  -6 -10  360.57   17.46
  10  -6  -9  121.78    6.17
  10   6  -9  129.94    6.42
  10  -6  -9  129.63    7.45
  10  -6  -8    3.11    1.12
  10   6  -8    1.97    0.95
  10  -6  -7   36.67    3.17
  10   6  -7   47.09    3.47
  10  -6  -7   40.14    3.50
  10   6  -6  348.99   15.47
  10  -6  -6  327.23   15.43
  10  -6  -6  315.63   21.74
  10  -6  -6  311.40   15.52
  10   6  -5   98.61    5.73
  10  -6  -5   84.53    7.55
  10   6  -5   98.13    8.53
  10  -6  -5   90.43    5.75
  10  -6  -5   93.62    5.02
  10   6  -5  100.43    5.32
  10  -6  -5   91.72    5.80
  10  -6  -5   95.86   10.42
  10   6  -5   76.92   10.15
  10  -6  -4   42.93    5.19
  10   6  -4   59.67    6.38
  10  -6  -4   46.90    3.22
  10   6  -4   60.24    3.66
  10   6  -4   67.02    4.16
  10  -6  -4   58.65    4.22
  10   6  -3   66.24    6.92
  10  -6  -3   67.44    3.93
  10   6  -3   72.40    4.21
  10   6  -3   66.14    4.41
  10   6  -3   67.40    4.34
  10  -6  -3   68.59    4.80
  10  -6  -2   12.52    1.37
  10   6  -2   12.81    1.49
  10   6  -2   16.14    1.82
  10   6  -2   12.53    1.57
  10  -6  -2   10.14    1.79
  10  -6  -1  454.06   20.45
  10   6  -1  496.11   20.84
  10   6  -1  464.97   20.95
  10   6  -1  481.82   20.99
  10  -6  -1  497.21   21.95
  10  -6   0  143.14    7.44
  10   6   0  164.83    7.85
  10   6   0  161.60    7.93
  10  -6   0  150.52    8.64
  10  -6   1  130.83    6.62
  10   6   1  147.27    7.04
  10   6   1  126.42    6.89
  10  -6   1  126.30    7.71
  10  -6   2  112.78    5.88
  10   6   2  124.62    6.26
  10  -6   2  116.02    7.10
  10   6   2  110.45    6.14
  10   6   3   20.32    1.95
  10   6   3   23.14    2.04
  10  -6   3   24.03    1.91
  10  -6   3   22.19    2.60
  10  -6   4    3.27    0.72
  10   6   4    1.68    0.65
  10  -6   4    1.47    1.03
  10   6   4    0.76    0.55
  10  -6   5   21.71    1.76
  10   6   5   24.80    2.01
  10   6   5   21.54    1.91
  10   6   6   63.33    3.71
  10  -6   7   21.41    2.24
  10   6   7   24.15    1.85
  10  -6   8  104.30    5.71
  10   6   8  100.84    5.04
  10  -6   9    7.47    1.12
  10  -6  10    3.72    0.68
  10   7 -18   36.00    2.11
  10   7 -17   51.72    2.79
  10   7 -17   44.86    2.34
  10   7 -16    3.71    0.75
  10  -7 -16    3.92    0.91
  10   7 -16    1.95    0.43
  10   7 -15  170.10    3.33
  10   7 -15  187.55    4.59
  10  -7 -15  183.29    5.72
  10  -7 -14   17.10    1.30
  10   7 -14   16.37    1.36
  10   7 -14   20.42    1.83
  10  -7 -14   17.75    2.05
  10  -7 -13  135.93    6.73
  10   7 -13  153.25    6.95
  10   7 -13  161.19    7.61
  10  -7 -13  157.85    8.28
  10   7 -12  250.82   10.82
  10   7 -12  274.55   11.63
  10  -7 -12  249.58   12.19
  10   7 -11    3.65    1.00
  10  -7 -11    3.22    1.06
  10  -7 -11    4.03    0.71
  10   7 -11    4.41    0.78
  10   7 -10    1.69    0.84
  10  -7 -10    1.98    0.97
  10  -7  -9    1.16    0.90
  10  -7  -8   12.65    1.87
  10  -7  -7   79.81    5.43
  10   7  -7   87.10    5.25
  10  -7  -6    4.14    0.76
  10   7  -6    6.87    1.05
  10   7  -6    4.09    1.09
  10  -7  -6    4.06    1.13
  10  -7  -6    4.32    1.09
  10  -7  -5  376.31   18.55
  10  -7  -5  388.27   17.47
  10   7  -5  430.46   17.83
  10   7  -5  446.16   18.64
  10  -7  -5  407.98   18.85
  10  -7  -5  390.18   18.47
  10  -7  -4    1.35    0.56
  10   7  -4    0.80    0.59
  10   7  -4    1.83    0.90
  10  -7  -4    1.75    0.88
  10   7  -4    0.59    0.70
  10  -7  -4    0.63    0.91
  10  -7  -3   49.24    3.24
  10   7  -3   55.10    3.50
  10   7  -3   61.08    4.04
  10  -7  -3   62.64    4.35
  10  -7  -3   60.70    4.33
  10   7  -3   61.09    3.95
  10  -7  -2  249.64   11.74
  10   7  -2  263.63   12.03
  10   7  -2  268.47   12.55
  10   7  -2  270.60   12.47
  10  -7  -2  281.54   13.20
  10  -7  -2  257.96   12.88
  10  -7  -1   75.71    4.31
  10   7  -1   83.59    4.61
  10   7  -1   79.55    4.83
  10   7  -1   83.64    4.94
  10  -7  -1   83.15    5.45
  10  -7  -1   79.80    5.21
  10  -7   0   35.41    2.48
  10   7   0   37.24    2.69
  10   7   0   37.18    2.88
  10  -7   0   40.68    3.50
  10  -7   1   59.00    3.56
  10   7   1   67.60    3.91
  10   7   1   63.76    4.05
  10  -7   1   66.51    4.75
  10  -7   2   10.48    1.16
  10   7   2   10.97    1.31
  10  -7   2    9.76    1.78
  10   7   2   10.82    1.42
  10  -7   3    1.93    0.56
  10   7   3    0.77    0.50
  10  -7   3    1.46    0.93
  10   7   3    0.90    0.62
  10  -7   4   35.88    2.43
  10   7   4   39.97    2.69
  10   7   4   42.64    2.89
  10   7   5  119.32    6.17
  10  -7   5  121.35    6.96
  10   7   6   93.14    4.95
  10   7   7  348.92   15.19
  10   7   8  162.39    7.62
  10  -7   8  173.65    8.28
  10  -7   9   74.74    4.16
  10  -7  10    0.42    0.36
  10   8 -18   88.33    4.09
  10   8 -17   24.13    1.62
  10   8 -16    6.35    0.85
  10   8 -15   13.19    1.33
  10  -8 -15   12.78    1.63
  10   8 -14    0.65    0.57
  10  -8 -14    0.79    0.66
  10   8 -13   22.92    1.99
  10  -8 -13   22.02    2.35
  10   8 -12   25.29    2.18
  10  -8 -12   22.92    2.48
  10   8 -11    1.17    0.74
  10  -8 -11    2.04    0.94
  10   8 -10    7.81    1.34
  10  -8 -10    3.85    1.25
  10   8  -9    2.14    0.92
  10  -8  -9    0.97    0.82
  10  -8  -8  116.49    5.92
  10   8  -8  132.18    6.17
  10  -8  -8  134.56    7.46
  10  -8  -7   14.11    1.30
  10   8  -7   16.80    1.49
  10  -8  -7   16.82    2.10
  10  -8  -6    0.69    0.39
  10   8  -6    1.32    0.48
  10   8  -6    0.64    0.80
  10  -8  -6    0.62    0.82
  10  -8  -6    2.21    0.84
  10  -8  -5   42.52    2.67
  10   8  -5   47.23    2.89
  10   8  -5   45.61    3.46
  10  -8  -5   47.35    3.48
  10  -8  -4   69.03    4.03
  10   8  -4   83.45    4.36
  10   8  -4   88.12    5.11
  10  -8  -4   79.11    5.02
  10  -8  -4   87.04    5.37
  10  -8  -3    4.08    0.70
  10   8  -3    4.23    0.78
  10   8  -3    6.37    1.23
  10  -8  -3    5.96    1.27
  10  -8  -3    4.99    1.26
  10  -8  -2    0.91    0.43
  10   8  -2    0.85    0.50
  10   8  -2    0.99    0.74
  10  -8  -2    1.32    0.91
  10  -8  -2    0.15    0.76
  10  -8  -1    2.53    0.61
  10   8  -1    3.60    0.76
  10  -8  -1    3.05    1.16
  10   8  -1    5.53    1.08
  10  -8  -1    3.51    1.12
  10  -8   0  483.76   21.48
  10   8   0  537.91   21.83
  10   8   0  537.87   22.40
  10  -8   0  474.80   22.49
  10  -8   0  530.33   23.09
  10  -8   1    1.47    0.46
  10   8   1    1.51    0.57
  10  -8   1    0.78    0.94
  10   8   1    0.54    0.59
  10   8   2   25.30    1.87
  10   8   2   28.43    2.29
  10  -8   2   31.59    2.89
  10  -8   3    0.05    0.06
  10  -8   3    2.26    1.00
  10   8   3    1.48    0.64
  10   8   4  243.33   11.26
  10  -8   4  242.97   12.02
  10   8   5   19.39    1.76
  10  -8   5   17.73    2.12
  10   8   6  694.02   28.89
  10  -8   6  674.76   29.56
  10   8   7   27.49    1.99
  10  -8   8    1.71    0.65
  10  -8   9   82.97    4.33
  10   9 -17    2.60    0.44
  10   9 -16    0.29    0.33
  10   9 -15   17.32    1.42
  10   9 -14  184.19    8.22
  10  -9 -14  161.89    8.75
  10   9 -13  344.65   14.69
  10  -9 -13  312.78   15.31
  10   9 -12  208.42    9.67
  10  -9 -12  199.38   10.31
  10   9 -11  174.61    8.33
  10  -9 -11  159.74    8.87
  10  -9 -10    3.18    1.05
  10   9 -10    1.04    0.79
  10  -9  -9    4.77    1.22
  10   9  -9    6.16    1.18
  10   9  -8   81.10    4.73
  10  -9  -8   68.05    4.90
  10  -9  -7  149.40    8.25
  10   9  -6    2.90    0.92
  10  -9  -6    2.21    1.09
  10   9  -5  403.46   17.54
  10   9  -5  409.33   17.38
  10   9  -4   19.84    2.11
  10  -9  -4   16.41    1.91
  10  -9  -4   18.45    2.21
  10   9  -4   19.61    1.98
  10   9  -3    8.01    1.36
  10  -9  -3    4.73    1.15
  10   9  -3    8.86    1.32
  10  -9  -3    9.13    1.61
  10  -9  -2    3.75    1.05
  10  -9  -2    3.23    1.05
  10  -9  -1   63.57    4.42
  10  -9  -1   65.97    4.41
  10  -9   0  148.64    7.91
  10  -9   0  138.98    7.59
  10  -9   1   18.54    2.19
  10  -9   1   19.50    1.98
  10  -9   2    6.05    1.37
  10  -9   3    0.68    0.82
  10   9   3    1.91    0.66
  10   9   4  246.31   11.32
  10  -9   4  245.83   11.93
  10   9   5   22.68    1.85
  10  -9   5   17.03    2.00
  10   9   6   15.76    1.45
  10  -9   6   14.78    1.70
  10   9   7  168.37    7.86
  10  -9   7  175.03    8.31
  10  -9   9   71.71    3.68
  10  10 -16    0.45    0.27
  10  10 -15   20.41    1.46
  10  10 -14  168.53    7.71
  10  10 -13  154.22    7.16
  10 -10 -13  144.38    7.73
  10 -10 -12    1.12    0.63
  10  10 -12    0.31    0.50
  10  10 -11   92.31    4.98
  10 -10 -11   90.44    5.52
  10 -10 -10    4.72    1.10
  10  10 -10    6.41    1.10
  10  10  -9   81.86    4.66
  10 -10  -9   75.46    5.07
  10  10  -8   19.84    2.01
  10  10  -8   23.82    2.08
  10  10  -7   85.31    4.91
  10 -10  -7   73.20    4.98
  10  10  -7   83.63    4.75
  10 -10  -6  432.01   20.47
  10  10  -6  475.08   20.09
  10  10  -5   36.66    2.78
  10  10  -4    1.51    0.84
  10 -10  -4    1.99    0.70
  10  10  -4    1.68    0.76
  10 -10  -4    2.91    1.04
  10  10  -3   25.25    2.21
  10 -10  -3   22.41    2.15
  10 -10  -3   24.44    2.47
  10  10  -2   14.40    1.66
  10 -10  -2   13.44    1.69
  10 -10  -2   13.88    1.84
  10  10  -1  122.34    6.42
  10 -10  -1  123.99    6.64
  10 -10  -1  110.90    6.53
  10  10   0  183.60    8.68
  10 -10   0  178.73    8.97
  10 -10   0  160.68    8.64
  10 -10   1   47.62    3.41
  10 -10   1   39.35    2.96
  10 -10   2  226.46   11.04
  10 -10   3   10.95    1.52
  10 -10   4    1.43    0.74
  10 -10   5   13.15    1.56
  10  10   5   13.34    1.33
  10 -10   6    3.13    0.81
  10  10   6    3.53    0.67
  10 -10   7   16.22    1.51
  10  10   7   16.23    1.32
  10  11 -15    0.39    0.23
  10  11 -15    0.50    0.24
  10  11 -14   20.30    1.43
  10  11 -14   19.83    1.38
  10  11 -13  545.78   22.32
  10  11 -13  519.62   22.21
  10 -11 -12   11.64    1.50
  10  11 -12   11.97    1.14
  10  11 -12   10.72    1.16
  10  11 -11   57.15    3.20
  10  11 -11   51.89    3.20
  10  11 -10    8.54    1.06
  10  11 -10    8.17    1.11
  10  11  -9   44.72    2.93
  10  11  -9   48.15    3.09
  10  11  -8   82.57    4.60
  10  11  -8   85.38    4.76
  10  11  -7  947.62   39.64
  10  11  -7  952.54   39.83
  10 -11  -6    8.27    1.45
  10  11  -6    9.87    1.28
  10  11  -6   10.04    1.42
  10  11  -5    8.95    1.24
  10  11  -4   39.30    2.79
  10 -11  -3   30.11    2.67
  10  11  -3   32.98    2.51
  10 -11  -2    7.58    1.31
  10 -11  -2    8.95    1.24
  10  11  -2   11.14    1.37
  10 -11  -1    7.22    1.27
  10 -11  -1    7.12    1.16
  10  11  -1    8.24    1.21
  10 -11   0   59.22    3.88
  10 -11   0   62.33    3.94
  10  11   0   67.00    3.88
  10  11   1    4.54    0.89
  10 -11   1    3.55    0.85
  10 -11   1    3.20    0.87
  10 -11   2   19.72    1.93
  10  11   2   19.57    1.75
  10 -11   3   10.54    1.39
  10  11   3    9.75    1.17
  10 -11   4   11.15    1.35
  10 -11   5   97.54    5.13
  10 -11   6   11.65    1.22
  10 -11   7    2.96    0.55
  10  12 -13   98.56    4.52
  10  12 -12   17.57    1.29
  10  12 -12   17.81    1.35
  10  12 -11   15.14    1.24
  10  12 -11   16.17    1.36
  10  12 -10    4.38    0.68
  10  12 -10    3.79    0.71
  10  12  -9   15.46    1.39
  10  12  -9   17.65    1.54
  10  12  -8    8.75    1.08
  10  12  -8   12.13    1.31
  10  12  -7    1.79    0.59
  10 -12  -6  202.79   10.34
  10  12  -6  227.70   10.00
  10  12  -5    2.91    0.72
  10 -12  -5    4.22    1.02
  10  12  -4    3.63    0.76
  10  12  -3    5.17    0.92
  10 -12  -3    4.21    1.00
  10 -12  -2   69.98    4.31
  10  12  -2   73.39    4.11
  10 -12  -1   80.13    4.68
  10 -12  -1   76.69    4.36
  10 -12   0  120.02    6.55
  10 -12   0  129.25    6.50
  10 -12   1  495.07   22.09
  10  12   1  544.48   22.17
  10 -12   2    6.82    1.00
  10  12   2    8.43    1.05
  10  12   3    0.73    0.47
  10 -12   3    0.15    0.46
  10 -12   4   18.83    1.56
  10  12   4   18.20    1.46
  10 -12   5   84.27    4.42
  10  12   5   93.07    4.40
  10  13 -11   37.39    2.00
  10  13 -10    5.65    0.67
  10  13  -9   66.80    3.39
  10  13  -8    8.19    0.87
  10  13  -7   25.77    1.77
  10  13  -6   30.29    2.02
  10 -13  -5  275.14   12.88
  10  13  -5  290.52   12.46
  10  13  -4   42.88    2.63
  10  13  -3    5.79    0.83
  10 -13  -3    6.48    1.06
  10 -13  -2   48.75    3.23
  10  13  -2   56.05    3.12
  10 -13  -1    5.53    0.97
  10  13  -1    6.26    0.88
  10  13   0  403.84   17.28
  10 -13   1   32.31    2.17
  10  13   1   48.37    2.54
  10 -13   2   14.22    1.23
  10  13   2   18.70    1.40
  10  13   3  222.74    9.77
  10  13   4  153.82    6.88
  10  14  -8   77.34    3.62
  10  14  -7    0.66    0.28
  10  14  -6   82.27    3.95
  10  14  -5    4.66    0.62
  10  14  -4    0.18    0.28
  10  14  -3  208.86    9.17
  10  14  -2    1.60    0.42
  10  14  -1   38.73    2.23
  10  14   0   96.81    4.58
  10  14   1   58.92    3.00
  11   0 -19    0.33    0.26
  11   0 -18  144.90    6.59
  11   0 -17    0.46    0.38
  11   0 -16   72.12    3.68
  11   0 -16   57.09    3.82
  11   0 -15    0.29    0.48
  11   0 -14   72.08    3.62
  11   0 -14   43.21    3.40
  11   0 -13    0.08    0.59
  11   0 -13    0.44    0.25
  11   0 -12  917.69   38.34
  11   0 -11    0.18    0.66
  11   0 -10  167.13    8.14
  11   0  -9    0.64    0.60
  11   0  -8   53.80    3.50
  11   0  -7    0.74    0.61
  11   0  -6   16.46    1.62
  11   0  -5    1.68    0.58
  11   0  -5    0.86    0.41
  11   0  -4   90.62    4.78
  11   0  -4   72.11    4.14
  11   0  -3    0.10    0.50
  11   0  -3    0.49    0.93
  11   0  -2  106.14    6.55
  11   0  -2  104.41    5.73
  11   0  -1    1.49    0.99
  11   0  -1    0.20    0.54
  11   0   0  353.67   15.86
  11   0   1    0.30    0.55
  11   0   2    8.83    1.59
  11   0   2    9.72    1.28
  11   0   3    1.05    0.98
  11   0   3    0.09    0.56
  11   0   4  149.70    7.53
  11   0   4  159.93    8.33
  11   0   5    0.13    0.79
  11   0   5   -0.08    0.48
  11   0   6    7.65    1.27
  11   0   6    6.59    0.98
  11   1 -19   26.74    1.60
  11   1 -18   79.94    3.94
  11   1 -17    0.73    0.43
  11   1 -16   17.36    1.48
  11  -1 -16   16.43    1.71
  11   1 -15    6.23    0.92
  11  -1 -15    2.81    0.80
  11   1 -14    0.94    0.54
  11  -1 -14    0.68    0.54
  11   1 -13   31.05    2.20
  11  -1 -13   20.20    2.13
  11   1 -12   28.39    2.18
  11  -1 -12   22.92    2.21
  11   1 -11  913.75   38.22
  11   1 -10   40.53    2.85
  11   1  -9    2.48    0.77
  11   1  -8   10.26    1.35
  11  -1  -8    7.04    1.14
  11   1  -7  216.85    9.76
  11  -1  -7  188.66    9.34
  11   1  -6   51.74    3.33
  11  -1  -6   48.63    3.07
  11   1  -5  535.72   22.86
  11   1  -5  528.54   22.73
  11   1  -4  349.75   14.39
  11   1  -4  290.26   13.77
  11   1  -4  298.09   13.76
  11  -1  -4  342.10   15.29
  11   1  -3   24.05    2.15
  11   1  -3   19.65    1.70
  11  -1  -3   25.87    2.71
  11   1  -2   14.11    1.63
  11  -1  -2   16.55    2.21
  11   1  -2   12.16    1.26
  11   1  -1    2.12    0.74
  11   1  -1    2.65    0.59
  11  -1  -1    1.50    0.95
  11   1   0    0.60    0.62
  11  -1   0    1.49    1.03
  11   1   1   21.98    2.52
  11   1   1   21.24    2.00
  11   1   2   33.14    3.10
  11  -1   2   35.60    3.23
  11   1   2   34.43    2.63
  11  -1   3   56.36    4.19
  11   1   3   55.03    4.11
  11   1   3   56.21    3.56
  11   1   4  105.31    6.18
  11  -1   4  102.36    6.20
  11   1   4  106.29    5.59
  11  -1   5   24.52    2.41
  11   1   5   21.89    1.89
  11  -1   6   91.08    5.34
  11   1   6   94.27    4.91
  11  -1   7    0.83    0.59
  11  -2 -19   62.10    3.08
  11   2 -19   66.17    3.12
  11   2 -19   63.48    3.24
  11  -2 -18  276.02   12.00
  11   2 -18  286.34   12.04
  11  -2 -17   50.64    2.77
  11   2 -17   47.96    2.76
  11  -2 -16    3.47    0.79
  11  -2 -16    4.19    0.73
  11   2 -16    4.11    0.73
  11  -2 -15    9.10    1.36
  11  -2 -15   11.16    1.21
  11   2 -15   12.98    1.27
  11  -2 -14    4.70    1.00
  11  -2 -14    4.62    0.84
  11   2 -14    5.01    0.86
  11  -2 -13   23.49    1.86
  11   2 -13   21.81    1.86
  11  -2 -13   18.18    2.03
  11  -2 -12   58.78    3.55
  11   2 -12   64.39    3.69
  11  -2 -12   55.26    3.93
  11  -2 -11  108.96    5.45
  11   2 -11  107.71    5.49
  11  -2 -10  216.12    9.60
  11   2 -10  214.14    9.69
  11   2  -9   72.94    4.52
  11  -2  -9   71.12    4.18
  11   2  -9   78.32    4.36
  11   2  -8    2.83    0.87
  11   2  -7    1.48    0.74
  11  -2  -7    0.82    0.45
  11   2  -6    7.93    1.23
  11   2  -5   79.40    4.49
  11  -2  -5   82.37    5.33
  11   2  -5   77.44    4.55
  11  -2  -4    3.34    0.86
  11   2  -4    2.65    0.81
  11   2  -4    1.78    0.66
  11   2  -4    3.47    0.76
  11  -2  -3  115.17    5.98
  11   2  -3  122.01    6.16
  11  -2  -3  123.11    6.94
  11   2  -3  102.22    5.63
  11   2  -3  106.37    5.69
  11  -2  -2    7.92    1.18
  11   2  -2    6.82    1.15
  11   2  -2    7.06    1.00
  11  -2  -2    7.92    1.60
  11  -2  -1  125.59    6.41
  11   2  -1  128.14    6.52
  11  -2  -1  125.95    7.35
  11   2  -1  115.47    6.05
  11  -2   0    0.76    0.61
  11   2   0    2.12    0.76
  11   2   0    1.38    0.52
  11  -2   0    2.49    1.18
  11   2   1    8.00    1.26
  11  -2   1    8.51    1.22
  11   2   1    7.29    0.94
  11  -2   1    9.34    1.76
  11  -2   2  659.63    9.22
  11   2   2  686.40    9.73
  11  -2   3  293.08   13.88
  11  -2   3  275.91   12.80
  11   2   3  286.44   12.95
  11  -2   4    5.02    1.28
  11  -2   4    3.17    0.77
  11   2   4    3.94    0.86
  11  -2   5   25.59    2.46
  11  -2   5   26.19    2.03
  11   2   5   25.47    2.05
  11  -2   6   45.89    3.38
  11   2   6   49.62    3.02
  11  -2   7  194.82    9.32
  11   3 -19    0.48    0.29
  11  -3 -19    0.44    0.22
  11   3 -19    0.26    0.23
  11   3 -18    2.43    0.52
  11   3 -18    2.08    0.44
  11  -3 -18    2.81    0.46
  11   3 -17  121.74    5.81
  11  -3 -17  112.71    5.50
  11   3 -17  123.55    5.58
  11  -3 -16   80.26    3.94
  11   3 -16   78.63    3.96
  11  -3 -15  164.30    8.78
  11  -3 -15  176.50    8.18
  11   3 -15  191.09    8.31
  11  -3 -14   34.65    2.83
  11  -3 -14   33.31    2.31
  11   3 -14   39.18    2.50
  11  -3 -13  152.65    8.50
  11  -3 -13  168.46    7.94
  11   3 -13  181.03    8.10
  11   3 -12    2.13    0.72
  11  -3 -12    2.66    0.71
  11  -3 -12    1.77    0.82
  11  -3 -11   12.61    1.64
  11  -3 -11   13.01    1.38
  11   3 -11   14.12    1.51
  11   3 -11   13.11    1.70
  11  -3 -10    7.69    1.09
  11   3 -10    7.63    1.16
  11  -3 -10    6.54    1.17
  11   3 -10    7.69    1.29
  11   3  -9  136.72    6.46
  11   3  -9  125.88    6.68
  11   3  -8    8.08    1.30
  11   3  -7  120.57    6.52
  11   3  -6   37.30    2.85
  11  -3  -5  142.85    7.82
  11   3  -5  134.32    6.95
  11   3  -5  139.60    7.11
  11  -3  -5  135.24    6.94
  11   3  -5  138.64    7.11
  11  -3  -4   42.08    3.44
  11   3  -4   37.14    2.65
  11   3  -4   34.64    2.66
  11  -3  -4   36.45    2.67
  11   3  -4   35.76    2.75
  11  -3  -3  432.55   19.23
  11   3  -3  390.13   17.95
  11   3  -3  395.72   17.96
  11  -3  -3  425.97   18.13
  11   3  -3  432.90   18.32
  11  -3  -2   39.14    3.46
  11   3  -2   35.01    2.56
  11   3  -2   40.73    2.74
  11  -3  -2   39.95    2.80
  11   3  -2   43.20    2.98
  11  -3  -1   25.14    2.80
  11   3  -1   26.33    2.12
  11  -3  -1   28.62    2.27
  11   3  -1   30.61    2.42
  11  -3   0  268.92   12.70
  11  -3   0  245.70   11.40
  11   3   0  269.34   11.69
  11  -3   1  383.72   17.75
  11   3   1  360.99   16.29
  11  -3   1  371.08   16.57
  11   3   1  398.63   16.84
  11   3   2    7.05    0.94
  11  -3   2    4.72    0.94
  11   3   2    6.98    1.13
  11  -3   3  106.08    4.87
  11   3   3  105.13    5.01
  11  -3   4  115.25    3.58
  11   3   4  124.31    3.91
  11  -3   4  124.73    4.98
  11  -3   5   54.17    3.34
  11   3   5   60.43    3.54
  11  -3   5   64.67    4.19
  11  -3   6   92.25    5.34
  11  -3   7   22.41    2.01
  11  -3   8    0.56    0.46
  11   4 -19    6.92    0.68
  11  -4 -18   36.13    1.99
  11   4 -18   39.67    2.05
  11   4 -18   38.98    2.24
  11  -4 -17  195.91    8.87
  11   4 -17  208.40    8.94
  11   4 -17  214.21    9.24
  11  -4 -16   17.09    1.32
  11   4 -16   17.92    1.36
  11  -4 -16   16.86    1.73
  11   4 -16   17.35    1.54
  11  -4 -15  159.85    8.35
  11  -4 -15  163.47    7.59
  11   4 -15  175.04    7.71
  11  -4 -14   14.41    1.75
  11  -4 -14   18.27    1.46
  11   4 -14   17.15    1.49
  11  -4 -13    4.48    0.79
  11   4 -13    5.10    0.86
  11  -4 -13    5.64    1.13
  11  -4 -12    8.22    1.06
  11   4 -12    9.65    1.18
  11   4 -12    9.17    1.32
  11  -4 -12    7.61    1.33
  11  -4 -11   19.85    1.68
  11   4 -11   22.55    1.84
  11   4 -11   21.56    2.08
  11  -4 -11   16.34    1.99
  11   4 -10  188.30    8.68
  11   4 -10  199.77    9.20
  11   4  -9  108.79    5.63
  11  -4  -9   81.71    5.38
  11   4  -8  399.96   16.41
  11  -4  -8  321.68   16.11
  11   4  -7   38.01    2.94
  11   4  -6   14.47    1.74
  11  -4  -6   18.20    2.12
  11  -4  -5  158.41    7.91
  11   4  -5  176.58    8.21
  11  -4  -5  170.63    8.86
  11   4  -5  159.76    8.07
  11   4  -5  156.04    8.16
  11  -4  -4    1.30    0.61
  11   4  -4    0.88    0.68
  11   4  -4    1.63    0.71
  11   4  -4    0.57    0.53
  11  -4  -4    0.92    0.85
  11  -4  -3    1.13    0.58
  11   4  -3    1.77    0.72
  11   4  -3    1.23    0.61
  11   4  -3    1.30    0.63
  11  -4  -3    1.25    0.96
  11  -4  -2    0.70    0.52
  11   4  -2    0.39    0.55
  11   4  -2    1.04    0.56
  11   4  -2    0.45    0.50
  11  -4  -2    1.91    1.07
  11  -4  -1  219.69   10.38
  11   4  -1  236.34   10.66
  11   4  -1  218.35   10.38
  11  -4  -1  225.72   11.50
  11  -4   0   30.45    2.35
  11   4   0   34.96    2.58
  11  -4   0   32.80    3.10
  11   4   0   30.17    2.32
  11  -4   1   80.83    4.59
  11   4   1   87.42    4.83
  11   4   1   80.92    4.53
  11  -4   1   93.38    5.71
  11  -4   2  427.08   18.45
  11   4   2  449.52   18.73
  11   4   2  397.04   18.24
  11  -4   2  450.49   19.73
  11   4   3    4.39    0.75
  11  -4   3    4.42    0.80
  11   4   3    4.19    0.88
  11  -4   4   35.20    2.36
  11   4   4   37.09    2.52
  11   4   4   30.50    2.11
  11  -4   5    2.87    0.95
  11  -4   5    2.44    0.63
  11   4   5    2.14    0.61
  11  -4   6   59.98    3.92
  11  -4   7    3.79    0.87
  11  -4   8   97.50    4.96
  11   5 -18    4.61    0.63
  11   5 -17    4.06    0.52
  11   5 -17    4.81    0.70
  11  -5 -16  218.78    9.72
  11   5 -16  230.96    9.81
  11  -5 -16  205.88   10.51
  11  -5 -15  184.01    8.40
  11   5 -15  194.65    8.51
  11   5 -15  198.35    8.92
  11  -5 -15  187.35    9.31
  11  -5 -14   12.04    1.12
  11   5 -14   13.76    1.21
  11  -5 -14   11.97    1.56
  11  -5 -13   33.84    2.13
  11   5 -13   33.73    2.21
  11  -5 -13   28.39    2.62
  11  -5 -12   40.26    2.49
  11   5 -12   41.88    2.61
  11  -5 -12   36.84    3.06
  11   5 -11   60.34    3.85
  11  -5 -11   57.93    4.06
  11   5 -10  228.03   10.22
  11  -5 -10  186.93   10.18
  11   5  -9  161.10    7.79
  11  -5  -9  134.73    7.69
  11   5  -8   18.56    1.99
  11  -5  -8   18.46    2.01
  11   5  -7   41.86    2.96
  11  -5  -7   27.94    2.55
  11   5  -6  247.56   11.29
  11  -5  -6  219.00   10.65
  11   5  -6  240.97   10.99
  11  -5  -6  239.55   11.58
  11   5  -5  350.95   15.53
  11  -5  -5  343.81   15.99
  11   5  -5  340.86   15.35
  11  -5  -5  326.59   14.99
  11   5  -5  349.59   15.29
  11   5  -4   12.31    1.49
  11  -5  -4   11.29    1.74
  11  -5  -4    8.48    1.16
  11   5  -4   11.31    1.40
  11   5  -4   12.23    1.46
  11   5  -3   44.11    3.11
  11   5  -3   44.81    3.08
  11  -5  -3   43.49    2.89
  11   5  -3   48.56    3.17
  11  -5  -3   45.48    3.64
  11   5  -2   74.23    4.43
  11   5  -2   73.94    4.39
  11  -5  -2   77.36    4.33
  11   5  -2   82.84    4.55
  11  -5  -2   81.90    5.27
  11   5  -1   83.10    4.71
  11  -5  -1   84.47    5.49
  11  -5  -1   82.27    4.56
  11   5  -1   88.81    4.83
  11  -5   0    8.24    1.67
  11   5   0    6.34    1.08
  11  -5   0    7.00    1.03
  11   5   0    7.52    1.08
  11  -5   1    1.16    0.56
  11   5   1    0.91    0.61
  11   5   1    1.33    0.56
  11  -5   1    2.30    1.11
  11  -5   2    2.82    0.66
  11   5   2    2.63    0.75
  11  -5   2    2.97    1.16
  11   5   2    3.11    0.72
  11   5   3   85.56    4.56
  11  -5   3   79.30    4.48
  11   5   3   94.60    4.82
  11  -5   3   98.37    5.68
  11   5   4    5.66    0.80
  11  -5   4    4.82    0.76
  11   5   4    5.51    0.90
  11   5   5    0.33    0.25
  11  -5   6    0.62    0.64
  11  -5   7   35.90    2.58
  11  -5   8  211.35    9.52
  11   6 -18    1.97    0.38
  11   6 -17   54.68    2.91
  11   6 -16  141.23    6.61
  11  -6 -15    7.29    1.14
  11   6 -15    7.24    0.98
  11   6 -14   41.38    2.70
  11  -6 -14   37.69    2.95
  11  -6 -13  365.50   16.64
  11  -6 -12  151.75    8.00
  11  -6 -11    0.65    0.70
  11  -6 -10    9.50    1.49
  11   6 -10   15.24    1.70
  11  -6  -9  142.57    7.94
  11   6  -9  162.73    7.93
  11  -6  -8  322.94   15.61
  11  -6  -8  325.92   14.81
  11  -6  -7   37.32    2.54
  11   6  -7   43.71    2.81
  11  -6  -7   38.55    3.04
  11   6  -7   44.16    3.14
  11   6  -6    9.66    1.44
  11  -6  -6    6.77    1.25
  11  -6  -6    8.84    1.08
  11   6  -6    7.69    1.08
  11   6  -6    9.50    1.31
  11   6  -5   14.03    1.67
  11  -6  -5   13.38    1.74
  11   6  -5   12.08    1.50
  11  -6  -5   13.72    1.34
  11   6  -5   13.42    1.44
  11   6  -4   13.61    1.57
  11  -6  -4    9.50    1.54
  11  -6  -4    8.62    1.07
  11   6  -4   10.30    1.26
  11   6  -4    9.81    1.35
  11   6  -3   71.50    4.31
  11   6  -3   73.38    4.31
  11  -6  -3   66.57    3.90
  11   6  -3   74.34    4.18
  11  -6  -3   75.88    4.87
  11   6  -2  343.22   15.34
  11  -6  -2  350.80   16.19
  11  -6  -2  324.43   14.93
  11   6  -2  363.31   15.29
  11  -6  -1  124.19    7.13
  11  -6  -1  122.29    6.09
  11   6  -1  131.65    6.37
  11   6  -1  117.88    6.33
  11  -6   0  213.09   10.74
  11  -6   0  205.68    9.55
  11   6   0  227.97    9.91
  11   6   0  196.86    9.78
  11  -6   1    2.66    0.62
  11   6   1    1.89    0.65
  11  -6   1    1.16    0.87
  11   6   1    1.10    0.60
  11   6   2   38.16    2.51
  11  -6   2   30.60    2.21
  11   6   2   36.16    2.47
  11  -6   2   43.98    3.35
  11   6   3    0.66    0.41
  11  -6   3    0.30    0.35
  11   6   3    0.58    0.45
  11   6   4   39.97    2.50
  11  -6   4   39.63    3.13
  11   6   5  125.16    5.92
  11  -6   6   12.57    1.38
  11   6   6    0.18    0.16
  11  -6   7   23.59    1.90
  11  -6   8    4.09    0.66
  11   7 -17   37.13    2.07
  11   7 -16    0.75    0.38
  11   7 -15   35.43    2.26
  11  -7 -14  154.18    8.31
  11   7 -14  182.88    8.04
  11  -7 -13    2.50    0.82
  11   7 -13    2.31    0.73
  11  -7 -12  103.10    5.85
  11   7 -12  102.45    5.47
  11  -7 -11   12.62    1.64
  11  -7 -10    3.87    0.61
  11  -7 -10    4.39    1.03
  11  -7  -9    1.87    0.49
  11   7  -9    2.38    0.60
  11  -7  -9    2.87    0.82
  11   7  -9    3.23    0.88
  11   7  -8   22.57    2.07
  11  -7  -8   18.71    1.50
  11   7  -8   20.18    1.63
  11   7  -7  271.40   11.88
  11   7  -7  257.11   11.19
  11   7  -7  264.81   11.73
  11   7  -6   20.49    2.05
  11  -7  -6   18.65    1.55
  11   7  -6   20.93    1.75
  11  -7  -6   23.39    2.13
  11   7  -5   28.39    2.38
  11  -7  -5   22.87    1.79
  11   7  -5   25.45    1.99
  11  -7  -5   29.81    2.53
  11   7  -5   28.96    2.32
  11   7  -4   39.30    2.91
  11   7  -4   38.83    2.82
  11  -7  -4   35.90    2.38
  11   7  -4   39.19    2.56
  11  -7  -4   39.78    3.14
  11   7  -3   14.60    1.57
  11   7  -3   12.82    1.49
  11  -7  -3   12.41    1.21
  11   7  -3   11.57    1.27
  11  -7  -3   13.90    1.83
  11   7  -2  145.90    7.30
  11  -7  -2  147.70    7.85
  11  -7  -2  136.45    6.74
  11   7  -2  150.27    7.03
  11  -7  -1  348.16   15.93
  11  -7  -1  318.06   14.63
  11   7  -1  362.75   14.98
  11   7  -1  344.72   15.20
  11  -7   0    1.78    0.50
  11   7   0    1.52    0.50
  11   7   0    1.86    0.66
  11  -7   0    0.55    0.81
  11   7   1   21.82    1.82
  11  -7   1   19.65    2.16
  11  -7   1   17.65    1.43
  11   7   1   18.97    1.59
  11   7   2   11.12    1.20
  11  -7   2   11.15    1.60
  11   7   2   10.01    1.07
  11  -7   3  139.49    7.40
  11   7   3  137.35    6.67
  11  -7   4    5.14    1.06
  11   7   4    5.40    0.79
  11  -7   5  540.41   21.65
  11   7   5  472.13   20.74
  11   7   6   12.08    1.02
  11  -7   7   10.67    1.15
  11   8 -16   68.16    3.38
  11   8 -15   15.38    1.27
  11   8 -14   51.31    2.96
  11  -8 -13    0.82    0.62
  11   8 -13    0.84    0.56
  11  -8 -12    5.38    1.08
  11   8 -12    5.73    0.94
  11  -8 -11    0.69    0.62
  11   8 -11    0.94    0.60
  11  -8 -10  110.13    6.13
  11  -8  -9    2.49    0.81
  11   8  -8   16.35    1.76
  11   8  -7    0.21    0.59
  11  -8  -7    0.14    0.09
  11   8  -6  338.26    7.06
  11  -8  -6   -0.05    0.00
  11   8  -5    3.32    0.90
  11  -8  -5    3.52    0.86
  11   8  -4   19.44    1.73
  11   8  -4   18.74    1.66
  11  -8  -4   21.01    1.88
  11   8  -3   12.48    1.38
  11  -8  -3   10.23    1.43
  11   8  -2  741.01    9.73
  11  -8  -2  713.08   10.89
  11   8  -1   24.74    2.08
  11  -8  -1   23.62    2.34
  11   8   0   48.66    3.19
  11  -8   0   53.66    3.72
  11   8   1    6.23    0.99
  11  -8   1    6.76    1.29
  11   8   2    2.94    0.68
  11  -8   2    1.51    0.81
  11  -8   3  180.71    8.94
  11   8   3  180.40    8.35
  11  -8   4  307.05   14.03
  11   8   4  311.28   13.45
  11  -8   5    7.35    1.11
  11   8   5    6.49    0.80
  11   8   6  122.44    5.57
  11   9 -15  177.41    7.80
  11   9 -14  220.20    9.69
  11   9 -13   39.81    2.46
  11  -9 -12  143.04    7.56
  11   9 -12  160.41    7.28
  11   9 -11    3.35    0.76
  11  -9 -11    2.08    0.70
  11   9 -10    3.54    0.76
  11   9 -10    6.13    0.98
  11   9  -9    5.83    0.96
  11   9  -8   27.38    2.15
  11   9  -7   29.24    2.28
  11   9  -7   28.98    2.35
  11   9  -6    6.09    1.11
  11   9  -5    2.03    0.75
  11  -9  -4    1.60    0.63
  11  -9  -3    1.75    0.69
  11  -9  -2  150.80    7.64
  11  -9  -1  210.40   10.34
  11   9  -1  222.20   10.10
  11   9   0  259.60   11.61
  11  -9   0  250.95   11.96
  11   9   1   14.88    1.43
  11  -9   1   13.07    1.57
  11   9   2   16.46    1.45
  11  -9   2   14.94    1.63
  11   9   3    1.14    0.45
  11  -9   3    0.64    0.68
  11   9   4  111.28    5.25
  11  -9   4  104.56    5.58
  11  -9   5  393.58   16.40
  11   9   5  368.90   15.94
  11  -9   6    0.71    0.40
  11  10 -14  193.91    8.48
  11  10 -14  199.35    8.54
  11  10 -13  201.27    8.91
  11  10 -13  206.38    8.99
  11  10 -12    0.72    0.37
  11  10 -12    0.51    0.41
  11  10 -11    4.73    0.73
  11  10 -11    5.29    0.80
  11  10 -10   12.69    1.21
  11  10 -10   12.08    1.28
  11  10  -9   91.95    4.61
  11  10  -9   82.67    4.62
  11  10  -8  832.38   34.70
  11  10  -7    2.35    0.70
  11  10  -6    4.14    0.82
  11  10  -5    4.80    0.82
  11  10  -4    3.86    0.81
  11 -10  -3   57.99    3.40
  11 -10  -2  134.94    6.67
  11 -10  -1   52.08    3.27
  11 -10   0  149.72    7.35
  11 -10   1    2.09    0.65
  11 -10   2   11.24    1.32
  11  10   2   14.34    1.26
  11 -10   3   26.94    2.01
  11  10   3   26.33    1.81
  11 -10   4    6.29    0.86
  11  10   4    6.80    0.77
  11 -10   5   19.81    1.49
  11  11 -13    0.45    0.22
  11  11 -12   15.61    1.14
  11  11 -11    1.88    0.45
  11  11 -11    3.16    0.57
  11  11 -10   28.90    1.89
  11  11 -10   30.53    2.00
  11  11  -9  233.90   10.33
  11  11  -8   27.69    1.93
  11  11  -7  185.23    8.49
  11  11  -6   13.19    1.27
  11  11  -5  121.97    5.97
  11  11  -4    1.39    0.54
  11  11  -3  142.26    6.82
  11  11  -2    0.89    0.45
  11 -11  -1   25.04    1.89
  11  11  -1   35.16    2.15
  11 -11   0   43.47    2.62
  11 -11   1    2.31    0.59
  11 -11   2    2.77    0.57
  11  12 -10   81.26    3.84
  11  12  -9    0.83    0.33
  11  12  -8  335.60   14.25
  11  12  -7   48.69    2.70
  11  12  -6   34.36    2.12
  11  12  -5    6.52    0.80
  11  12  -4   25.73    1.77
  11  12  -3    1.67    0.46
  11  12  -2   85.42    4.29
  11  12  -1  286.54   12.39
  11  12   0   14.92    1.21
  11  12   1  134.62    6.12
  11  13  -7   63.05    3.06
  11  13  -6    0.36    0.22
  11  13  -5    1.29    0.33
  11  13  -4   83.95    3.99
  11  13  -3   47.71    2.52
  11  13  -2    9.94    0.86
  12   0 -17    0.04    0.27
  12   0 -16   36.73    2.21
  12   0 -15    0.41    0.41
  12   0 -14  100.56    5.05
  12   0 -13    1.39    0.55
  12   0 -12  369.56   16.05
  12   0 -11    0.66    0.50
  12   0 -10  276.07   12.28
  12   0  -9    1.26    0.50
  12   0  -9    0.11    0.09
  12   0  -8    2.05    0.53
  12   0  -8   -0.05    0.00
  12   0  -7    0.42    0.48
  12   0  -6  701.56   29.63
  12   0  -5    1.28    0.64
  12   0  -4   97.17    5.19
  12   0  -3    0.09    0.48
  12   0  -2  262.09   11.91
  12   0  -1   -0.17    0.54
  12   0   0   36.99    2.58
  12   0   1    0.39    0.48
  12   0   2  172.80    8.12
  12   0   3    0.34    0.39
  12   0   4   14.18    1.29
  12   1 -17    7.45    0.76
  12  -1 -17    6.42    0.70
  12   1 -16    2.37    0.53
  12  -1 -16    2.05    0.48
  12   1 -15  184.59    8.04
  12  -1 -15  166.59    7.88
  12   1 -14   15.35    1.42
  12  -1 -14   15.62    1.36
  12   1 -13  447.64   17.92
  12  -1 -13  387.50   17.64
  12   1 -12   39.36    2.51
  12  -1 -12   32.44    2.28
  12   1 -11  133.90    6.49
  12  -1 -11  128.60    6.30
  12  -1 -10    6.56    0.86
  12   1 -10    7.33    1.02
  12   1  -9   27.93    1.78
  12  -1  -9   -0.06    0.00
  12   1  -8    4.26    0.79
  12   1  -8    4.17    0.72
  12   1  -7   45.15    3.05
  12   1  -7   57.40    3.13
  12   1  -6    0.19    0.12
  12   1  -6   -0.06    0.22
  12   1  -5    2.07    0.71
  12   1  -5    0.11    0.09
  12   1  -4  133.19    6.70
  12   1  -3   34.21    2.50
  12   1  -2    1.11    0.60
  12   1  -1   21.35    1.87
  12   1   0    7.15    1.05
  12   1   1   12.23    1.35
  12   1   2  165.43    7.83
  12   1   3   10.34    1.15
  12   1   4    2.23    0.58
  12   2 -17   11.33    0.97
  12   2 -16    9.64    0.93
  12  -2 -16    5.68    0.70
  12   2 -15    3.51    0.66
  12  -2 -15    2.33    0.51
  12   2 -14    1.94    0.58
  12  -2 -14    1.48    0.47
  12   2 -13    5.53    0.88
  12  -2 -13    4.81    0.73
  12   2 -12    1.62    0.58
  12  -2 -12    0.18    0.26
  12   2 -11   23.49    1.67
  12  -2 -11    0.12    0.10
  12   2 -10    4.23    0.85
  12   2  -9    7.12    1.06
  12  -2  -8  293.20   12.62
  12   2  -8  275.17   12.50
  12   2  -8  273.68   12.35
  12  -2  -7   10.16    1.22
  12   2  -7   12.30    1.35
  12   2  -7    8.36    1.10
  12   2  -7    9.50    1.09
  12  -2  -6   42.90    2.74
  12   2  -6   44.74    2.83
  12   2  -6   39.88    2.48
  12  -2  -5  230.61    5.12
  12   2  -5  243.89    5.43
  12  -2  -4    9.65    1.19
  12   2  -4   10.21    1.28
  12   2  -4    8.21    0.96
  12  -2  -3    4.82    0.81
  12   2  -3    4.45    0.91
  12  -2  -2  122.81    6.23
  12   2  -2  126.65    6.35
  12  -2  -1  118.10    5.94
  12   2  -1  115.19    5.99
  12  -2  -1  118.87    6.74
  12  -2   0  690.20   29.51
  12   2   0  710.44   29.65
  12  -2   0  713.87   30.50
  12  -2   1  143.97    7.09
  12   2   1  153.04    7.24
  12  -2   2    1.43    0.53
  12   2   2    0.51    0.43
  12  -2   3  104.20    5.20
  12   2   3  108.94    5.32
  12  -2   3  102.86    5.83
  12  -2   4    4.67    0.70
  12   2   4    4.79    0.74
  12   3 -16   97.50    4.70
  12   3 -15   54.50    2.11
  12  -3 -15    0.16    0.13
  12   3 -14    0.72    0.49
  12  -3 -14    0.32    0.14
  12   3 -13   11.09    1.23
  12   3 -12    0.70    0.53
  12   3 -11  197.72    9.25
  12   3 -10    4.08    0.85
  12   3  -9   28.35    2.18
  12  -3  -8   40.10    2.67
  12   3  -8   42.82    2.80
  12   3  -8   43.29    2.81
  12   3  -8   40.56    2.66
  12  -3  -7   55.07    3.35
  12   3  -7   62.55    3.54
  12   3  -7   54.76    3.39
  12   3  -7   56.10    3.31
  12  -3  -6    2.34    0.62
  12   3  -6    2.40    0.71
  12   3  -6    1.58    0.55
  12   3  -6    1.12    0.48
  12  -3  -5  160.71    6.93
  12   3  -5  174.98    7.18
  12   3  -5  152.41    6.73
  12  -3  -4    2.13    0.64
  12   3  -4    2.59    0.71
  12   3  -4    1.78    0.53
  12  -3  -3    2.51    0.68
  12   3  -3    3.09    0.76
  12   3  -3    2.57    0.58
  12  -3  -2  105.62    5.29
  12   3  -2  115.99    5.51
  12  -3  -2  113.82    6.23
  12  -3  -1  111.21    3.40
  12   3  -1  117.10    3.67
  12  -3  -1  110.81    4.57
  12  -3   0  110.71    5.52
  12   3   0  113.24    5.66
  12  -3   0  101.13    6.20
  12  -3   1  441.31   19.39
  12   3   1  467.08   19.57
  12  -3   1  459.98   20.35
  12  -3   2   90.58    4.69
  12   3   2   96.32    4.85
  12  -3   3   81.67    4.19
  12   3   3   83.12    4.30
  12  -3   4   34.61    2.59
  12   4 -15   29.71    1.95
  12   4 -14    5.30    0.80
  12   4 -13    0.98    0.55
  12   4 -12   89.71    4.76
  12   4 -11  148.08    7.21
  12   4 -10  103.08    5.39
  12   4  -9    9.54    1.22
  12  -4  -9   10.75    1.16
  12   4  -9   11.53    1.24
  12   4  -8    2.01    0.64
  12   4  -8    1.41    0.62
  12  -4  -8    1.69    0.56
  12   4  -8    1.20    0.53
  12   4  -7   94.39    4.94
  12  -4  -7   95.90    4.90
  12   4  -7   98.23    5.02
  12   4  -7   90.48    5.00
  12  -4  -6   46.14    2.90
  12   4  -6   51.30    3.09
  12   4  -6   48.10    3.03
  12   4  -6   48.09    2.96
  12  -4  -5    7.68    0.99
  12   4  -5    7.37    1.06
  12   4  -5    7.03    0.98
  12   4  -5    6.39    0.95
  12  -4  -4   24.04    1.59
  12   4  -4   25.54    1.74
  12   4  -4   20.02    1.45
  12  -4  -3    7.72    0.99
  12   4  -3    7.63    1.05
  12   4  -3    6.77    0.91
  12  -4  -3    7.26    1.35
  12  -4  -2  160.52    8.16
  12   4  -2  147.95    7.13
  12  -4  -2  148.09    7.22
  12   4  -2  160.95    7.45
  12  -4  -1  176.99    8.70
  12   4  -1  153.36    7.50
  12  -4  -1  166.73    7.72
  12   4  -1  172.61    7.91
  12  -4   0  503.24    6.72
  12  -4   0  524.52    9.54
  12  -4   1    4.79    0.76
  12   4   1    5.43    0.86
  12  -4   1    5.73    1.20
  12   4   2    7.88    0.99
  12  -4   2   12.00    1.08
  12  -4   2    8.92    1.34
  12  -4   3    8.10    0.88
  12   4   3    8.83    0.98
  12  -4   5    2.87    0.68
  12  -5 -15    2.13    0.36
  12   5 -14   96.78    4.81
  12   5 -13   66.24    3.65
  12   5 -12   80.59    4.12
  12  -5 -12   69.57    3.66
  12   5 -11   11.24    1.27
  12  -5 -11   10.43    1.02
  12   5 -11    9.38    1.02
  12   5 -10  194.19    8.84
  12  -5 -10  182.80    8.40
  12   5 -10  185.92    8.50
  12   5  -9  147.64    6.98
  12   5  -9  149.85    7.11
  12  -5  -9  138.38    6.67
  12   5  -9  141.39    6.80
  12   5  -8   37.99    2.53
  12   5  -8   35.38    2.56
  12  -5  -8   37.22    2.34
  12   5  -8   38.07    2.44
  12   5  -7  321.23   14.19
  12   5  -7  322.68   14.29
  12  -5  -7  305.33   13.92
  12   5  -7  345.04   14.19
  12   5  -6   98.99    5.27
  12   5  -6  102.03    5.25
  12  -5  -6   99.23    5.06
  12   5  -6  109.00    5.28
  12   5  -5   46.22    2.96
  12   5  -5   49.39    3.00
  12  -5  -5   46.94    2.84
  12   5  -5   52.87    3.06
  12   5  -4   82.88    4.55
  12  -5  -4   85.20    4.46
  12   5  -4   94.80    4.69
  12  -5  -3   85.89    5.13
  12  -5  -3   83.23    4.36
  12   5  -3   89.14    4.55
  12   5  -3   81.95    4.43
  12  -5  -2    1.74    0.53
  12   5  -2    1.16    0.54
  12   5  -2    1.19    0.49
  12  -5  -2    2.77    0.91
  12  -5  -1   21.53    1.62
  12   5  -1   23.33    1.78
  12  -5  -1   24.69    2.30
  12   5  -1   19.22    1.57
  12  -5   0   54.79    3.64
  12   5   0   46.80    2.76
  12   5   0   53.32    3.00
  12  -5   0   46.22    2.76
  12  -5   1    5.60    0.70
  12   5   1    5.63    0.78
  12  -5   1    6.27    1.14
  12  -5   2   14.15    1.17
  12   5   2   14.49    1.26
  12  -5   2   16.96    1.78
  12  -5   3    0.09    0.60
  12  -5   5  287.93   12.65
  12   6 -16   40.69    2.17
  12   6 -13  166.51    2.82
  12  -6 -13    0.18    0.09
  12   6 -12    8.96    1.03
  12   6 -12    8.28    0.75
  12   6 -11   60.93    3.44
  12  -6 -11   54.65    2.95
  12   6 -11   61.85    3.09
  12   6 -10  253.74   10.80
  12   6 -10  265.21   10.98
  12   6 -10  239.96   10.45
  12   6  -9   15.28    1.45
  12   6  -9   17.45    1.59
  12  -6  -9   13.66    1.17
  12   6  -9   16.66    1.32
  12   6  -8    8.89    1.09
  12   6  -8    7.09    1.04
  12  -6  -8    6.74    0.80
  12   6  -8    7.20    0.88
  12   6  -7   70.64    3.79
  12   6  -7   64.58    3.79
  12  -6  -7   62.10    3.40
  12   6  -7   67.40    3.57
  12   6  -6    3.39    0.73
  12   6  -6    2.88    0.70
  12  -6  -6    3.54    0.61
  12   6  -6    2.91    0.62
  12   6  -5   26.93    1.99
  12   6  -5   25.49    1.97
  12  -6  -5   25.93    1.77
  12   6  -5   26.80    1.89
  12   6  -4   76.69    4.13
  12  -6  -4   72.10    3.85
  12   6  -4   81.22    4.08
  12  -6  -3  275.29   12.75
  12   6  -3  276.98   12.15
  12  -6  -3  259.49   11.85
  12   6  -3  289.03   12.11
  12  -6  -2   10.63    1.47
  12  -6  -2   10.35    1.00
  12   6  -2   10.28    1.08
  12   6  -2   10.03    1.11
  12  -6  -1    5.27    0.70
  12   6  -1    7.34    0.87
  12   6  -1    7.78    0.91
  12  -6  -1    6.56    1.21
  12  -6   0   28.93    1.85
  12   6   0   31.92    2.03
  12   6   0   28.78    1.98
  12  -6   1    0.71    0.30
  12   6   1    0.97    0.37
  12   6   1    0.66    0.37
  12  -6   1    1.12    0.65
  12  -6   2  134.84    4.23
  12   6   2    4.31    0.60
  12  -6   3    5.63    0.96
  12  -6   4   51.11    3.09
  12   7 -15   16.90    1.17
  12   7 -12   10.42    1.04
  12   7 -11   65.11    3.62
  12   7 -11   66.62    3.56
  12   7 -10    9.89    0.89
  12   7 -10   12.54    1.29
  12   7 -10   13.87    1.24
  12   7  -9    0.28    0.25
  12   7  -9    0.81    0.50
  12   7  -9    0.60    0.44
  12   7  -8    6.96    0.70
  12   7  -8    8.32    1.02
  12   7  -8    8.42    0.97
  12   7  -7   29.82    1.42
  12   7  -7   30.72    1.85
  12   7  -7   33.64    1.86
  12   7  -6    3.73    0.58
  12   7  -6    2.82    0.70
  12   7  -6    3.33    0.67
  12   7  -5   63.23    2.11
  12   7  -5   71.09    2.66
  12   7  -4  197.08    3.71
  12   7  -4  199.75    4.40
  12   7  -3  554.19    6.10
  12  -7  -3  572.94    8.57
  12   7  -3  581.42    7.35
  12  -7  -2   67.04    3.98
  12   7  -2   61.20    3.29
  12   7  -2   67.94    3.60
  12   7  -1    3.15    0.51
  12   7  -1    2.42    0.55
  12  -7  -1    1.91    0.76
  12   7   0    4.89    0.71
  12  -7   0    4.77    0.95
  12   7   1   53.09    2.93
  12  -7   1   59.42    3.54
  12   7   2    8.76    0.84
  12  -7   2   10.42    1.25
  12  -7   3  423.14   18.20
  12  -7   4   36.37    2.30
  12   8 -14   37.53    2.03
  12   8 -14   35.42    1.95
  12   8 -13    2.41    0.50
  12   8 -10    4.72    0.77
  12   8  -9    1.86    0.57
  12   8  -8  325.29   14.13
  12   8  -8  321.48   14.04
  12   8  -7   24.61    1.81
  12   8  -7   22.95    1.82
  12   8  -6   12.24    1.22
  12   8  -5   12.23    1.21
  12   8  -4   69.45    3.77
  12   8  -3   14.58    1.32
  12   8  -2   20.80    1.59
  12  -8  -2   19.60    1.73
  12   8  -1   28.29    1.88
  12  -8  -1   25.99    2.07
  12   8   0   10.90    1.04
  12  -8   0   11.71    1.31
  12   8   1   12.95    1.09
  12  -8   1   14.76    1.40
  12   8   2    5.53    0.64
  12  -8   2    6.96    0.92
  12  -8   3    7.77    0.93
  12   9 -13    1.41    0.34
  12   9 -13    1.71    0.32
  12   9 -12    1.12    0.36
  12   9 -12    0.85    0.30
  12   9 -11   53.28    2.80
  12   9  -9   35.53    2.23
  12   9  -5   64.72    3.49
  12   9  -4   21.34    1.60
  12   9  -3  374.90   16.02
  12   9  -2  135.61    6.32
  12   9  -1   10.54    1.00
  12   9   0   26.87    1.71
  12  -9   0   26.17    1.83
  12   9   1   48.14    2.45
  12  -9   1   41.92    2.57
  12  10 -11   27.67    1.60
  12  10 -10  358.65   15.06
  12  10  -9   13.29    1.07
  12  10  -8   68.24    3.45
  12  10  -2    1.14    0.36
  12  10  -1   68.12    3.39
  12  10   0    1.94    0.38
  12  11  -8   19.63    1.25
  12  11  -7  252.03   10.73
  12  11  -6   21.64    1.39
  12  11  -5  118.51    5.38
  13   0 -15    0.29    0.19
  13   0 -14  310.85   13.12
  13   0 -13    0.43    0.29
  13   0 -12  263.87   11.40
  13   0 -11    0.26    0.31
  13   0 -10  118.69    5.65
  13   0  -9    0.17    0.35
  13   0  -8  127.35    6.08
  13   0  -7    0.25    0.37
  13   0  -6  336.13   14.54
  13   0  -5    0.50    0.43
  13   0  -4    1.00    0.46
  13   0  -3    0.06    0.37
  13   0  -2    2.33    0.54
  13   0  -1    0.63    0.41
  13   0   0  398.47   16.89
  13   0   1    1.69    0.43
  13   0   2   17.12    1.25
  13   1 -15   30.54    1.65
  13   1 -14   11.11    0.90
  13   1 -13   73.84    3.62
  13   1 -12   37.51    2.19
  13   1 -11   46.18    2.61
  13   1 -10   36.90    2.27
  13   1  -9    7.80    0.91
  13   1  -8   49.21    2.84
  13   1  -7   82.38    4.26
  13   1  -6  205.05    9.26
  13   1  -5  278.65   12.24
  13   1  -4   44.72    2.69
  13   1  -3  180.33    8.25
  13   1  -2   14.19    1.27
  13   1  -1   61.73    3.34
  13   1   0   79.42    4.00
  13   1   1    4.63    0.66
  13   1   2   61.38    3.12
  13  -2 -14    5.83    0.60
  13   2 -14    5.86    0.61
  13  -2 -13   52.28    2.64
  13   2 -13   48.29    2.61
  13  -2 -12   24.48    1.26
  13   2 -12   23.96    1.27
  13  -2 -11    2.20    0.47
  13   2 -11    3.07    0.52
  13  -2 -10  309.25   13.33
  13   2 -10  312.05   13.38
  13  -2  -9    5.85    0.76
  13   2  -9    8.49    0.93
  13  -2  -8   71.79    3.79
  13   2  -8   75.76    3.87
  13  -2  -7   98.40    4.88
  13   2  -7  101.23    4.96
  13  -2  -6    4.68    0.73
  13   2  -6    4.35    0.72
  13  -2  -5  145.28    6.93
  13   2  -5  155.34    7.05
  13  -2  -4   28.76    1.93
  13   2  -4   29.16    1.98
  13  -2  -3   85.31    4.38
  13   2  -3   90.53    4.49
  13  -2  -2  162.64    7.42
  13   2  -2  162.96    7.49
  13  -2  -1    0.88    0.40
  13   2  -1    0.89    0.40
  13  -2   0   26.32    1.70
  13   2   0   25.62    1.73
  13  -2   1  157.60    7.27
  13   2   1  172.04    7.39
  13  -3 -13   93.48    4.25
  13   3 -13   96.77    4.28
  13   3 -13   85.45    4.24
  13  -3 -12    0.77    0.28
  13   3 -12    0.81    0.30
  13   3 -12    0.75    0.29
  13  -3 -11    4.08    0.55
  13   3 -11    4.70    0.61
  13   3 -11    3.24    0.51
  13  -3 -10    3.57    0.54
  13   3 -10    3.44    0.56
  13   3 -10    0.09    0.11
  13   3 -10    0.11    0.07
  13  -3  -9    4.75    0.64
  13   3  -9    4.83    0.66
  13  -3  -8    6.98    0.81
  13   3  -8    7.09    0.85
  13   3  -7    5.33    0.76
  13  -3  -7    4.19    0.64
  13  -3  -6   37.86    2.30
  13   3  -6   39.86    2.39
  13  -3  -5    1.33    0.42
  13   3  -5    0.93    0.42
  13  -3  -4   22.95    1.63
  13   3  -4   24.25    1.72
  13  -3  -3  111.08    5.34
  13   3  -3  114.27    5.44
  13  -3  -2  153.17    7.05
  13   3  -2  158.44    7.17
  13   3  -1  408.00   16.55
  13  -3  -1  373.95   16.39
  13  -3   0    6.33    0.72
  13   3   0    8.50    0.85
  13  -3   1  157.69    7.17
  13   3   1  170.74    7.29
  13  -4 -12    2.47    0.40
  13   4 -12    2.50    0.41
  13   4 -12    2.75    0.47
  13  -4 -11   52.46    2.61
  13   4 -11   56.78    2.70
  13   4 -11   54.68    2.73
  13  -4 -10    5.76    0.65
  13   4 -10    5.23    0.65
  13   4 -10    4.98    0.64
  13   4 -10    4.17    0.56
  13  -4  -9   20.61    1.15
  13   4  -9   23.70    1.27
  13  -4  -8  183.91    3.75
  13   4  -8  194.88    4.01
  13  -4  -7   32.02    1.46
  13   4  -7   34.70    1.59
  13  -4  -6   51.78    1.85
  13   4  -6   60.21    2.11
  13  -4  -5    0.71    0.33
  13   4  -5    0.26    0.34
  13  -4  -4   64.43    3.44
  13   4  -4   74.13    3.62
  13  -4  -3  104.62    5.11
  13   4  -3  117.43    5.30
  13   4  -2  209.21    8.77
  13  -4  -2  187.43    8.58
  13  -4  -1   99.07    4.85
  13   4  -1  114.76    5.03
  13  -4   0   15.62    1.13
  13   4   0   17.54    1.23
  13   5 -12   70.62    3.42
  13   5 -11  117.95    5.22
  13   5 -11  125.48    5.43
  13   5 -11  112.24    5.28
  13  -5 -10   22.18    1.37
  13   5 -10   25.20    1.45
  13   5 -10   22.52    1.52
  13   5 -10   22.63    1.46
  13  -5  -9  132.83    5.77
  13   5  -9  140.48    5.86
  13   5  -9  123.92    5.86
  13   5  -9  120.36    5.81
  13  -5  -8  118.69    5.39
  13   5  -8  129.89    5.52
  13   5  -8  111.97    5.44
  13  -5  -7    0.64    0.28
  13   5  -7    1.32    0.36
  13   5  -7    1.60    0.35
  13  -5  -6    0.97    0.34
  13   5  -6    1.45    0.36
  13   5  -6    0.56    0.27
  13  -5  -5   67.19    1.91
  13   5  -5   72.74    2.13
  13  -5  -4   49.39    1.62
  13   5  -4   55.01    1.85
  13  -5  -3   35.25    2.02
  13   5  -3   40.46    2.18
  13  -5  -2    9.58    0.82
  13   5  -2   11.27    0.93
  13   5  -1    3.08    0.44
  13   6 -10    0.42    0.25
  13   6 -10    0.52    0.28
  13   6  -9   57.73    2.92
  13   6  -8   37.48    2.11
  13   6  -7    0.44    0.25
  13   6  -6   22.87    1.40
  13   6  -6   24.87    1.53
  13   6  -5  170.00    7.45
  13   6  -4   57.27    2.84
  13   7  -9   17.98    1.19
  13   7  -8   11.49    0.92
  13   7  -7  101.26    4.66
  13   7  -6   17.00    1.18
  13   7  -5  196.26    8.47
  14   0  -8   55.95    2.75
  14   0  -7    0.33    0.23
  14   0  -6  227.82    9.72
  14   0  -5    0.27    0.21
  14   0  -4    0.89    0.27
  14   1  -8   38.10    2.01
  14   1  -7  225.48    9.60
  14   1  -6  115.05    5.17
  14   1  -5   48.61    2.46
  14   1  -4    0.16    0.18
   0   0   0    0.00    0.00


TITL MI-3 in P2(1)/c
REM P2(1)/c (#14 in standard setting)
CELL 1.54184  11.185751  17.131982  19.833189  90.0000 104.6114  90.0000
ZERR   41.00   0.000075   0.000119   0.000123   0.0000   0.0007   0.0000
LATT  1
SYMM -x, y+1/2,-z+1/2
SFAC C N O Mo Ag
UNIT 41.00 41.00 41.00 41.00 41.00
TREF
HKLF 4
END
_computing_structure_solution     'SHELXT 2018/2 (Sheldrick, 2018)'
;
_shelx_hkl_checksum              2917
_olex2_submission_special_instructions 'No special instructions were received'
_oxdiff_exptl_absorpt_empirical_details 
;
Empirical correction (ABSPACK) includes:
- Absorption correction using spherical harmonics
- Frame scaling
;
_oxdiff_exptl_absorpt_empirical_full_max 1.723
_oxdiff_exptl_absorpt_empirical_full_min 0.489

_chemical_properties_physical    Light-sensitive
